
 OpenBabel03071213D

 23 23  0  0  0  0  0  0  0  0999 V2000
   12.1070   17.1040   57.0260 C   0  0  0  0  0
    9.9630   19.1340   64.3110 O   0  0  0  0  0
   14.5790   22.9640   59.4710 O   0  0  0  0  0
   11.9380   18.3450   64.0180 O   0  0  0  0  0
   13.7620   20.2300   62.1210 O   0  0  0  0  0
   12.9990   22.5100   57.5130 O   0  0  0  0  0
   11.2470   17.6310   58.1880 C   0  0  0  0  0
   12.0320   18.5340   59.1240 C   0  0  0  0  0
   12.4520   19.8420   58.4700 C   0  0  0  0  0
   11.7430   20.6960   64.1740 C   0  0  0  0  0
   11.8610   21.4970   62.8700 C   0  0  0  0  0
   12.4830   21.1820   60.5180 N   0  0  0  0  0
   15.1750   21.2220   57.7500 O   0  0  0  0  0
   16.3840   21.7100   53.7410 C   0  0  0  0  0
   15.1480   21.1380   54.0250 C   0  0  0  0  0
   17.2110   22.1400   54.7700 C   0  0  0  0  0
   14.7350   20.9920   55.3470 C   0  0  0  0  0
   16.7990   21.9980   56.0940 C   0  0  0  0  0
   13.3050   20.7000   59.4050 C   0  0  0  0  0
   11.1530   19.2930   64.0350 C   0  0  0  0  0
   12.7980   20.9330   61.8050 C   0  0  0  0  0
   15.5620   21.4200   56.3890 C   0  0  0  0  0
   13.9840   22.0210   58.4990 P   0  0  0  0  0
  1  7  1  0  0  0
  2 20  1  0  0  0
  3 23  1  0  0  0
  4 20  2  0  0  0
  5 21  2  0  0  0
  6 23  2  0  0  0
  7  8  1  0  0  0
  8  9  1  0  0  0
  9 19  1  0  0  0
 10 11  1  0  0  0
 10 20  1  0  0  0
 11 21  1  0  0  0
 12 19  1  0  0  0
 12 21  1  0  0  0
 13 22  1  0  0  0
 13 23  1  0  0  0
 14 15  1  0  0  0
 14 16  2  0  0  0
 15 17  2  0  0  0
 16 18  1  0  0  0
 17 22  1  0  0  0
 18 22  2  0  0  0
 19 23  1  0  0  0
M  END
>  <MOLID> (1a0qB1)
1a0qB1

>  <SMILES_CANONICAL> (1a0qB1)
CCCC[C@@H](P(=O)(Oc1ccccc1)O)NC(=O)CCC(=O)O	

>  <FINGERPRINT> (1a0qB1)
0000000000100110000000000000000000000001000000000001011000001000001000000001000000000100000000000000000000000000000001100000000000010000000100000000000000010100000000000000000000000000000000001000001000000010010000000000000000100000000010000000000100000000000010000000000000000000100000000100000000000000000010001100000000000000001000000000001000000000010000000100000110010000000000000000010000000000100000000001001000000001000000100000000000010001000000100001000000000000000010100000000000001000000000000000100000000000000000000010000000101100000000000001000000000000000000000001000001000000010000000000000000000000000000100000011000000001000000000000000000000000000000000001110100110100000011110000000000000001010000010000000000000000000000000001000000000000000110000000000100010000000000000000000000000100001000100000000000000100000000100000000000000000000000000001000000000011010000000000000000000010000001000000000000000010001000010000011000000000000000010001000000000000000000000000000000100000100100101110101000000011

>  <MACCS166> (1a0qB1)
000000000000000000000000000010000000000000000001000001000000000000000000000100000000000001110010001001010101011111111100001101110111000100111110011110110111111110111000

>  <OB_MW> (1a0qB1)
343.118

>  <OB_logP> (1a0qB1)
3.139

>  <OB_PSA> (1a0qB1)
122.74

>  <OB_MR> (1a0qB1)
85.9888

>  <OB_ATOMIC_CHARGES> (1a0qB1)
8.985e-07 -0.2456394941 -0.1283999424 -0.2456394941 -0.273313821 -0.2392594255 7.32361e-05 0.0024527271 0.0354525086 0.1236539986 0.0986263757 -0.1934158106 -0.4198025451 0.0002018134 0.0031236358 0.0031236358 0.0373516255 0.0373516255 0.2125115742 0.3653651 0.2424853258 0.1468163501 0.4368801023

>  <MCT_HBD> (1a0qB1)
3

>  <MCT_HBA> (1a0qB1)
7

>  <ENSEMBLE_TOTAL> (1a0qB1)
50

>  <ENSEMBLE_COORDS> (1a0qB1)
-3.3230 -4.0372 -0.3762 -2.3617 -0.6694 6.2124 1.2470 1.8761 0.0728 -1.3856 -2.2288 4.8629 0.8095 -0.0253 2.5881 -0.6663 1.9233 -1.4867 -2.7096 -3.0322 -1.3187 -1.5215 -2.3702 -0.6654 -1.7422 -0.8783 -0.6152 -2.2984 -0.2051 3.9187 -1.1768 0.7737 3.6523 -1.0623 0.4226 1.2928 1.1407 0.3121 -1.9957 3.8891 1.8515 -4.7169 3.3968 0.4891 -4.8102 3.4395 2.6666 -3.7457 2.4869 0.0410 -3.9272 2.4631 2.1797 -2.7835 -0.5915 -0.1997 0.0822 -1.9300 -1.1465 5.0206 -0.3612 0.3246 2.4745 1.9950 0.9201 -2.8819 0.2626 1.0122 -0.8543
-0.5289 -4.6115 -1.6440 -3.1953 0.3889 5.8214 1.3578 1.7084 0.1452 -3.7043 -0.9670 4.0521 1.0861 -0.4341 2.8401 -0.7629 1.7083 -1.1324 -1.0856 -3.6321 -0.6406 -0.9988 -2.2388 -1.2094 -1.5128 -1.2309 -0.2113 -1.4110 -0.6234 4.6938 -0.8051 0.5405 3.9434 -0.7828 0.1824 1.6015 1.0120 0.1727 -1.9279 3.1005 2.1503 -4.9481 2.4800 2.9014 -3.8719 2.9999 0.8097 -4.9802 1.8034 2.2566 -2.9051 2.2728 0.1122 -3.9339 -0.3751 -0.4270 0.3629 -2.8880 -0.4287 4.7844 -0.0475 0.0263 2.7568 1.7006 0.8076 -2.9357 0.2848 0.8282 -0.6608
-1.3678 -5.2405 -1.3657 -3.5210 0.0922 5.2047 1.5804 1.4446 0.4168 -3.4243 0.6360 2.9914 1.3762 -0.4704 2.8747 -0.6684 1.5487 -0.6175 -1.7944 -3.8559 -0.9552 -0.5852 -3.0029 -0.6588 -1.0665 -1.5985 -0.3964 -1.4307 0.7247 4.3427 -0.6867 -0.5640 4.0739 -0.6170 -0.4686 1.6856 1.0346 0.2345 -1.8336 2.8325 2.5239 -4.8059 2.2719 3.1640 -3.6292 2.8027 1.1849 -4.9222 1.7095 2.4232 -2.6564 2.2010 0.3842 -3.8736 -0.0593 -0.8119 0.4041 -2.8832 0.4837 4.0763 0.1497 -0.4674 2.8309 1.6931 0.9765 -2.7793 0.4529 0.6591 -0.4072
-2.0922 -5.1388 -2.0941 -1.1461 1.5270 5.5148 0.8154 1.5279 0.2629 -2.3970 0.0018 6.6595 0.3791 -0.7637 2.4493 -0.9186 1.4949 -1.4993 -2.4338 -3.6942 -1.8337 -1.2417 -2.9679 -1.2589 -1.5760 -1.4995 -1.1697 -1.2302 -0.6606 4.6624 -1.8242 -0.3044 3.3173 -1.3858 -0.4224 0.9858 1.1519 0.2303 -1.9772 3.6462 2.6127 -4.3113 2.5871 3.2147 -3.5208 3.8584 1.2860 -4.2537 1.8090 2.4462 -2.7367 3.0211 0.4569 -3.4059 -0.6619 -0.7854 -0.2064 -1.6853 0.3006 5.7117 -0.8072 -0.5373 2.2335 2.0507 1.0151 -2.6610 0.0811 0.6603 -0.8683
-1.5746 -3.3695 -2.9511 -2.3858 -0.1392 6.5138 1.2543 2.1147 -0.0836 -2.6763 -2.0780 5.3524 -2.7088 0.7493 1.9759 2.1369 -0.1967 -0.0348 -0.7514 -2.9525 -1.7583 -1.3753 -1.7412 -1.1118 -0.7292 -1.4916 0.2299 -1.0113 -0.4960 4.6320 -1.3712 0.8061 3.9531 -0.4271 0.3469 1.7929 0.7653 0.4008 -1.9975 3.1325 1.7125 -5.1619 3.6768 1.6375 -3.8176 1.8474 1.3861 -5.3871 2.8984 1.2413 -2.7942 1.0045 0.9670 -4.2814 -0.4558 -0.0181 0.3997 -2.1246 -0.9970 5.4991 -1.5969 0.6133 2.4798 1.4990 0.9315 -3.0311 0.9730 0.5727 -0.4182
-2.9388 -3.9758 -1.6462 -1.2555 -0.4361 6.1118 2.0648 0.3807 0.2323 -0.9071 -1.9631 4.4513 -2.5574 1.4953 1.2887 0.3488 2.1119 -0.1947 -1.5529 -3.6346 -1.1601 -1.6455 -2.5691 -0.0976 -0.3527 -1.7939 -0.0417 -2.4570 -0.1440 4.1255 -1.7253 1.0094 3.4763 -0.8189 -0.0320 1.5498 0.7650 0.5247 -2.0341 3.6246 1.9571 -4.6988 3.5938 2.4399 -3.3295 2.7597 1.0083 -5.0987 2.6911 1.9493 -2.4604 1.7918 0.4729 -4.1594 -0.6192 -0.3216 0.1550 -1.4584 -0.9608 4.8800 -1.7794 0.8549 1.9875 1.7741 0.9052 -2.8864 0.6544 0.7211 -0.4506
-0.6918 -2.7154 -3.7584 -3.2233 0.7683 4.1143 1.3071 0.9470 0.5734 -2.2849 1.5691 6.0334 1.2192 -1.2842 2.8154 -0.9011 1.1840 -0.5146 -1.6820 -2.5831 -2.6287 -0.9899 -2.8468 -1.3152 -1.5446 -1.9191 -0.2627 -0.8804 0.8295 4.2243 -0.6619 -0.6652 4.1526 -0.8352 -0.8988 1.7955 0.7943 -0.1372 -1.7381 2.8108 2.2200 -4.5033 2.7082 0.7802 -4.6590 2.2375 2.8289 -3.4498 2.0494 0.0497 -3.7422 1.5199 2.0430 -2.4624 -0.4208 -1.2211 0.4577 -2.1791 1.0947 4.9124 0.0307 -0.9854 2.8640 1.4456 0.7060 -2.5984 0.1724 0.2359 -0.3104
-3.6718 -4.2621 -1.0760 0.4358 -0.9936 4.3116 1.8464 -0.3653 0.0704 -1.3126 -1.1699 5.7673 -2.3086 1.7114 1.3037 0.6119 1.7764 0.2038 -2.2446 -3.7791 -1.0609 -2.2238 -2.2723 -1.0012 -0.8776 -1.8300 -0.4901 -1.1591 0.7146 4.2617 -2.3043 0.4230 3.3181 -1.1440 -0.2977 1.3628 0.6655 0.6804 -2.0091 3.8406 2.0183 -4.3312 2.6230 1.5023 -4.9307 3.9617 2.0799 -2.9933 1.6148 1.0763 -4.1492 2.8723 1.6303 -2.1476 -0.9111 -0.3867 -0.0552 -0.7231 -0.5777 4.8764 -1.9148 0.7132 1.8987 1.7529 1.1350 -2.7062 0.5705 0.4735 -0.4236
-3.2702 -4.0968 0.4302 -0.9279 -0.7959 5.7012 1.9849 0.2746 0.0685 -1.2149 -2.5429 4.2647 -2.4444 1.7060 1.3998 0.5107 2.2386 -0.2527 -1.9157 -3.4846 0.1855 -2.0609 -2.1646 -0.5309 -0.7044 -1.5087 -0.5772 -2.3890 -0.4700 3.8895 -1.6234 0.7513 3.4297 -0.8498 0.0106 1.3132 0.7823 0.7588 -2.2098 3.9165 1.9369 -4.6787 3.9219 2.2884 -3.2698 2.9217 1.1848 -5.1817 2.9247 1.8757 -2.4668 1.8510 0.7302 -4.3141 -0.7591 -0.0708 -0.1215 -1.4533 -1.3934 4.6048 -1.7162 0.8809 1.9412 1.8630 1.0444 -3.0072 0.6525 0.8464 -0.6179
-1.4768 -5.1392 -1.2887 -3.2860 0.8396 5.3008 1.6517 1.4611 0.4543 -1.9440 2.1348 3.9857 -0.1631 -2.4947 2.5574 -0.5280 1.6867 -0.7067 -1.8541 -3.6918 -1.1115 -0.6335 -2.8676 -0.7878 -1.0854 -1.4509 -0.5388 -1.2694 -0.1022 4.5705 -1.8088 -1.0903 3.5628 -0.6294 -0.4223 1.6031 1.1995 0.3067 -1.8302 2.9789 2.6059 -4.8114 2.5451 3.2253 -3.5707 2.8200 1.2833 -4.9948 1.9730 2.4822 -2.6051 2.2006 0.4818 -3.9564 -0.0802 -0.7137 0.3081 -2.1750 1.0854 4.5666 -0.7575 -1.4209 2.5507 1.7869 1.0583 -2.8149 0.5354 0.7424 -0.4428
-1.5828 -2.8588 -3.6727 -1.0929 -1.9200 5.2904 1.4436 1.3340 0.4124 -2.0120 -0.5304 6.8485 -1.6003 1.9426 2.0049 1.5853 -1.0235 -0.3334 -2.0943 -2.7632 -2.2567 -1.8146 -1.3896 -1.7004 -1.4992 -1.4846 -0.2255 -2.1461 0.0247 4.5077 -0.9149 0.6643 3.9064 -0.7690 -0.2094 1.7007 0.5535 0.5930 -1.9136 3.4376 1.6753 -4.7097 3.8110 1.4410 -3.3258 2.1644 1.4971 -5.1044 2.8824 1.0564 -2.4317 1.1626 1.0806 -4.1409 -0.8539 -0.2119 0.2647 -1.7473 -0.8024 5.6869 -1.1538 0.8878 2.4438 1.5100 0.8552 -2.8620 0.7306 0.1421 -0.3895
-2.2964 -3.4116 -2.9135 -1.5534 -1.7697 5.3822 2.1691 -0.3207 0.1290 -1.0491 0.2480 6.3212 -2.5432 1.1470 1.3197 0.6876 1.6607 0.0715 -2.0856 -2.5378 -1.7030 -0.6299 -2.5721 -1.3068 -0.4568 -2.1527 0.1337 -2.4047 0.1324 4.3259 -1.5179 1.0143 3.4765 -0.7566 -0.3051 1.6600 0.7144 0.2452 -1.9591 3.3536 2.0326 -4.6423 3.6099 2.0872 -3.2145 2.2442 1.4301 -5.1061 2.7424 1.5272 -2.3530 1.3080 0.8233 -4.1769 -0.5652 -0.6558 0.2793 -1.5891 -0.4175 5.4509 -1.6905 0.6362 2.0386 1.5441 0.8770 -2.8542 0.7649 0.2817 -0.3591
-0.9066 -4.1087 -3.3213 -3.2604 0.0563 4.0097 -1.1672 1.0803 -0.8319 -2.9628 1.6508 5.6077 1.3934 -0.5880 2.8393 0.9345 1.2556 0.4646 -1.3155 -2.9133 -2.4967 -0.4897 -2.8634 -1.2350 -1.1999 -2.0428 -0.1846 -1.0683 0.8709 4.3487 -0.5731 -0.5506 4.1974 -0.6936 -0.8070 1.8337 1.0318 -0.0587 -1.6344 2.6305 2.3885 -4.5959 1.7167 2.9351 -3.6083 2.9947 1.0954 -4.5353 1.2258 2.1480 -2.6340 2.4671 0.2460 -3.4838 -0.2182 -1.1373 0.5176 -2.5094 0.9036 4.7524 0.1697 -0.6522 2.8992 1.6320 0.7555 -2.5618 0.1683 0.3361 -0.3473
-3.6331 -2.9894 0.7745 -2.0953 -2.4837 4.2154 1.1172 2.2729 -0.3276 -2.3435 -1.0875 6.0031 -2.8174 0.3323 1.3443 2.3076 0.1117 -0.1441 -2.1270 -2.9701 0.7193 -1.6646 -2.1221 -0.4398 -0.2865 -1.5911 -0.1328 -0.9429 -0.4545 4.1406 -1.6993 0.6446 3.4303 -0.4922 0.3063 1.3806 1.0848 0.4999 -2.2512 3.5762 2.1704 -5.1392 3.9649 2.1778 -3.7397 2.3985 1.6368 -5.5087 3.1457 1.6558 -2.8092 1.5088 1.0841 -4.5037 -0.3160 -0.0882 0.0057 -1.8826 -1.3341 4.8996 -1.7493 0.3958 1.9484 1.8514 1.1266 -3.2033 1.0947 0.7058 -0.6625
-3.8145 -3.8212 -0.1290 -1.7375 -1.0841 5.7551 1.9750 -0.2072 0.1068 -0.2377 -1.6213 4.1232 -2.2334 1.7244 1.0623 0.5738 1.8350 0.0298 -2.3506 -3.5206 0.0562 -1.9077 -2.5105 -0.9723 -0.6066 -1.9079 -0.5104 -1.3469 0.5227 4.0913 -2.4433 0.4114 3.0540 -1.0914 -0.2939 1.2259 0.8224 0.6028 -2.0944 3.9181 2.2240 -4.3548 3.9312 2.3398 -2.9070 2.9231 1.5591 -4.9680 2.9420 1.7948 -2.1757 1.8585 0.9668 -4.1806 -0.7701 -0.4471 -0.1676 -1.0370 -0.8427 4.6217 -1.9145 0.7141 1.6817 1.8763 1.0661 -2.8406 0.6708 0.4957 -0.5074
-2.3067 -4.8738 -2.6558 -2.0825 0.3349 6.2472 -0.9364 1.5872 -1.1187 -0.6103 1.8167 5.3321 0.5771 -1.2070 2.5107 0.9294 1.1040 0.4312 -2.5588 -3.4479 -2.2369 -1.4634 -2.9688 -1.3139 -1.6929 -1.5053 -1.0238 -1.9978 0.4651 3.9012 -1.5324 -0.9424 3.6011 -1.2887 -0.7103 1.2242 1.0904 0.1329 -1.8438 3.5630 2.5816 -4.1437 2.5742 3.1659 -3.2545 3.7045 1.2457 -4.2059 1.7996 2.3743 -2.4891 2.8719 0.3922 -3.3772 -0.6721 -0.9592 -0.0572 -1.4567 0.9432 5.2116 -0.6215 -0.9624 2.4055 1.9779 0.9319 -2.5296 0.1321 0.5014 -0.6146
-2.2590 -2.7843 -3.3934 0.1730 -1.1481 4.6384 1.2673 1.8277 0.2199 -1.0731 -1.0693 6.5472 -3.0763 1.1871 1.8422 1.6462 -0.6201 0.1214 -1.5094 -2.6213 -2.0946 -1.9355 -1.3381 -1.4270 -1.4149 -1.3027 -0.0117 -2.0894 -0.5546 4.4260 -1.8443 0.8259 3.8601 -0.9222 0.3041 1.7343 0.6450 0.4131 -1.8847 3.5623 1.4063 -4.6796 3.9291 1.1359 -3.2991 2.2738 1.3395 -5.0602 2.9801 0.8268 -2.3970 1.2494 1.0174 -4.0840 -0.8935 0.0753 0.3158 -0.9662 -0.9300 5.3381 -2.0447 0.7899 2.3747 1.5864 0.8097 -2.7997 0.7160 0.4098 -0.2871
-4.1400 -4.1070 -1.3966 -0.5256 -0.4500 5.8884 0.6935 1.5618 0.3895 0.6507 -0.8838 3.9816 -2.5229 1.5076 1.2659 1.5734 -0.7281 0.0908 -2.6845 -3.7159 -1.4157 -2.5454 -2.2338 -1.1709 -1.1659 -1.9610 -0.6269 -0.9806 0.8933 4.0278 -2.1935 0.3278 3.3225 -1.3342 -0.4930 1.2737 0.7742 0.4144 -1.9495 3.9167 2.2514 -3.9572 2.6735 1.9166 -4.6287 4.0672 1.9918 -2.6461 1.6668 1.3513 -3.9389 2.9900 1.3611 -1.9043 -1.0476 -0.5400 -0.1362 -0.1898 -0.2421 4.5934 -2.0453 0.5391 1.8464 1.8303 1.0731 -2.5242 0.5390 0.1654 -0.3847
-0.0086 -3.1364 -3.5387 -1.5837 2.0755 3.9745 0.6058 1.5639 0.4059 -1.7204 1.6099 6.2040 -0.7206 -2.6207 2.7478 -1.2601 1.0593 -1.1407 -1.0886 -2.5761 -2.6478 -0.7332 -2.8272 -1.2032 -1.5185 -1.8913 -0.3173 -0.7571 0.0012 4.6903 -1.7699 -0.8503 3.9585 -1.1071 -0.5818 1.6866 0.8986 -0.0194 -1.6548 3.0237 2.1830 -4.4680 1.9317 2.7941 -3.7304 3.3838 0.9133 -4.2107 1.2733 2.0905 -2.7917 2.6778 0.1559 -3.1939 -0.5749 -0.9620 0.4066 -1.4086 1.2924 5.0660 -1.1216 -1.4605 2.7536 1.6862 0.7309 -2.4909 -0.1082 0.4560 -0.5057
-0.5900 -2.8882 -3.5351 -2.7440 -0.1073 6.5997 2.3233 -0.6951 -0.2954 -3.6827 0.5230 4.6177 -1.5488 1.3122 2.0145 1.1599 1.4121 0.2826 -0.0734 -3.0626 -2.1285 -1.0542 -2.4686 -1.1465 -0.3800 -2.2516 0.1884 -1.5698 -0.6446 4.6520 -0.6683 0.4061 4.0446 -0.1847 -0.5688 1.9243 0.4836 0.3330 -1.8358 2.6268 2.0623 -4.9595 3.2360 1.9092 -3.6503 1.3657 1.6450 -5.1705 2.5388 1.3530 -2.6435 0.6138 1.0418 -4.0858 -0.3170 -0.7790 0.5085 -2.7751 0.0057 5.2506 -0.8760 0.4425 2.5595 1.1768 0.9048 -2.8731 0.9393 0.1149 -0.3184
-0.2267 -2.9665 -3.9893 -1.7200 0.8100 6.2855 0.5976 1.0859 0.7363 -0.8434 2.3386 4.8375 0.4859 -1.3427 2.7412 -1.1158 1.0628 -1.0479 -1.1419 -2.2182 -3.0523 -1.0262 -2.7920 -1.6605 -1.8061 -1.9483 -0.6773 -2.1389 0.4930 3.9918 -1.5368 -0.8926 3.9254 -1.4512 -0.9585 1.5220 0.9797 -0.2064 -1.4792 3.0757 2.1534 -4.1964 2.2284 2.7725 -3.1927 3.1811 0.8142 -4.2606 1.5480 2.0079 -2.3194 2.4383 -0.0117 -3.3268 -0.8543 -1.2264 0.2411 -1.4767 1.3153 5.0523 -0.7117 -1.0756 2.6828 1.6415 0.5603 -2.4074 -0.1266 0.2250 -0.4062
-2.8810 -4.3978 -1.2025 -2.8660 0.4268 5.1711 1.3702 -1.4819 -2.0322 -1.4078 -1.3170 5.0001 -2.6803 0.0321 1.2877 2.3240 -0.3513 -0.0582 -2.1943 -3.7331 -0.0354 -0.8352 -3.2428 -0.4669 -0.2390 -2.3504 0.5948 -0.8231 0.8212 4.0645 -1.4634 1.3994 2.8216 -0.3592 -0.0165 1.2391 0.8507 1.0168 -1.5028 2.9912 3.1026 -4.3981 1.6542 3.5057 -4.0000 3.5633 2.0201 -3.8415 0.9811 2.7922 -3.0794 2.8467 1.2605 -2.8322 -0.2468 -0.9186 0.1226 -1.7120 -0.1554 4.7698 -1.5867 0.3911 1.7148 1.5966 1.6198 -2.4844 1.1167 -0.4236 -0.8524
-1.8581 -4.1732 -2.8113 -2.7940 1.7949 5.2456 2.3339 0.2280 0.5026 -0.9345 0.6044 5.8203 -1.3372 -1.9881 2.6775 2.1648 -1.3752 -1.3665 -2.1429 -4.0178 -1.3369 -0.9259 -3.4778 -0.6249 -0.9064 -1.9746 -0.7446 -1.3123 1.2186 3.5222 -2.1796 0.2475 2.7527 -0.6190 -0.4443 1.0922 0.7408 0.6497 -1.5175 2.4364 3.2626 -4.2717 1.0039 3.2103 -4.0442 3.2592 2.4516 -3.5822 0.4986 2.3491 -3.1441 2.7156 1.5205 -2.6062 0.0759 -1.3684 0.2279 -1.6374 1.1431 4.9786 -1.3329 -0.8592 2.1972 1.3857 1.4720 -2.4018 1.3654 -0.4738 -0.5651
-3.7628 -4.0034 -1.5062 -2.4307 0.4950 4.4737 -0.8104 1.7324 -0.5571 -0.8530 1.5124 5.7672 -1.3509 -2.1573 2.4896 -1.0266 0.1973 -2.4843 -2.4569 -3.8074 -0.7773 -1.5759 -2.8818 -1.5809 -0.4608 -2.3535 -0.7153 -0.3234 0.8562 3.5105 0.1732 -0.5690 3.4306 -0.1024 -0.7916 1.0827 1.2176 0.3241 -1.4202 3.6241 2.9473 -3.5772 2.2513 3.3026 -3.2638 4.1107 1.7493 -3.2081 1.4624 2.4369 -2.6027 3.2598 0.8132 -2.4964 -0.8258 -0.9997 -0.1488 -1.1952 0.9958 4.7147 -0.5356 -1.2611 2.3028 1.9800 1.1309 -2.2312 -0.3688 0.3316 -1.2024
-4.3059 -3.8457 -1.7426 0.7940 -0.6083 5.5950 -0.6092 2.3373 -0.8830 0.6687 -1.8470 3.6823 -2.4627 1.6338 1.8331 -1.0670 0.6628 -2.6410 -2.9621 -3.5202 -1.1434 -2.6317 -2.0728 -1.4054 -1.4737 -1.6714 -0.5310 -1.0153 -0.1895 4.1719 -0.6593 0.9605 3.2559 -0.9941 -0.0183 1.1212 0.9367 0.2520 -1.2556 4.3519 1.6441 -3.1668 3.0415 2.1239 -3.5698 4.4697 0.7895 -2.1354 1.9399 1.7088 -2.9179 3.2831 0.3455 -1.4296 -1.5380 -0.1991 -0.2025 0.2268 -0.9824 4.4236 -1.4975 0.8997 2.0140 2.0726 0.8097 -1.7845 -0.5684 0.7873 -1.2886
-3.4750 -4.3321 -0.9802 -2.2070 1.6325 5.0607 1.3218 1.4874 0.2194 -1.8194 -0.1697 6.4069 -2.6639 -0.4152 1.5568 2.2684 -0.6907 -0.4731 -2.0727 -3.8677 -1.2793 -1.9423 -2.3872 -1.0238 -0.4942 -2.0764 -0.7394 -0.7666 -0.0104 4.2384 -1.4261 -1.1339 3.4708 -0.3826 -0.8229 1.3358 0.9520 0.5110 -2.1759 3.3199 3.0086 -4.5320 3.8185 2.5022 -3.2649 2.0824 2.6830 -4.9466 3.0421 1.7118 -2.5007 1.2394 1.8425 -4.1139 -0.3446 -0.7176 -0.1033 -1.6511 0.4335 5.3583 -1.5776 -0.7386 2.0291 1.6845 1.4076 -2.9212 1.0941 0.1424 -0.6217
-1.3669 -1.7356 -4.0778 0.3898 -1.4413 3.9204 0.6030 1.5568 0.5915 -0.3205 -1.0059 6.0446 -2.4048 1.9775 1.9480 1.0093 -0.8659 0.2876 -1.5459 -2.2396 -2.6678 -2.3540 -1.2441 -1.8711 -2.0682 -1.4322 -0.4022 -0.5666 0.6588 4.3166 -2.0033 0.5782 3.8493 -1.7035 -0.2181 1.6363 0.3030 0.4228 -1.7180 3.7434 1.0352 -3.9775 3.8109 1.0339 -2.5265 2.5760 0.7914 -4.5984 2.7034 0.8016 -1.7987 1.3822 0.5389 -3.8140 -1.5384 -0.1599 0.2091 -0.1747 -0.6696 4.8793 -2.0598 0.8835 2.3826 1.4462 0.5255 -2.4715 0.1396 0.2081 -0.1418
-3.8660 -4.1501 -0.7170 -1.1786 1.4155 5.0406 1.9478 -0.7573 -0.2750 -1.0428 -0.4676 6.3209 -2.0874 1.0847 1.3718 0.6989 1.3250 0.2091 -2.3857 -3.8771 -0.7816 -2.1240 -2.5876 -1.5199 -0.7472 -2.0993 -1.1498 -0.8447 -0.6202 3.9238 -2.1043 -0.5845 3.0858 -1.0572 -0.9617 0.9727 0.7875 0.6049 -2.1659 3.8482 2.7400 -4.0160 4.0605 2.1298 -2.7158 2.6540 2.6324 -4.6252 3.0600 1.4624 -2.1142 1.5723 1.9153 -3.9741 -0.8085 -0.7697 -0.4351 -1.0525 0.0798 5.2279 -1.7629 -0.0448 1.7259 1.7587 1.3796 -2.7549 0.6739 0.1504 -0.6341
-4.3396 -3.3553 -1.7258 -2.4391 -0.4496 5.1933 2.1047 -1.1643 -0.6101 -0.6683 0.4283 6.3345 -2.4335 0.4956 1.5156 0.5690 -1.2892 -2.5430 -3.2923 -3.2927 -0.6414 -2.0253 -2.7007 -1.2043 -1.0611 -2.3627 -0.0927 -0.4109 -0.2652 4.0410 -0.6569 0.8715 3.0739 -0.3202 -0.3631 1.0644 0.8807 0.9491 -1.5236 3.6779 3.0142 -3.8174 3.8370 1.5913 -3.5740 2.6028 3.6639 -3.3374 2.9144 0.9210 -2.8600 1.6062 2.9410 -2.5684 -0.6257 -0.9258 -0.2255 -1.1578 -0.0269 5.3120 -1.2553 0.3220 1.8108 1.7475 1.6217 -2.3519 0.7459 -0.6245 -1.2702
-3.8118 -4.0024 -1.3124 -1.7834 0.7641 5.8800 0.8090 -1.3838 -2.4833 -2.0311 -1.4194 5.2745 -2.4867 0.5022 1.4247 2.1422 -0.8966 -0.4634 -3.1009 -2.9649 -0.4795 -1.6780 -2.8254 -0.9592 -0.7985 -2.3013 0.1503 -0.4516 -0.0281 4.1075 -0.8959 1.0336 3.1264 -0.2760 -0.1506 1.1436 0.9672 1.0257 -1.4865 3.5073 3.0396 -4.0952 3.8064 1.6801 -3.6825 2.3686 3.6307 -3.6920 2.9553 1.0162 -2.8797 1.4472 2.9126 -2.8296 -0.4698 -0.8520 -0.0995 -1.5167 -0.3217 5.1164 -1.3283 0.4255 1.8230 1.7170 1.6490 -2.4568 0.9087 -0.5330 -1.1269
-2.0418 -3.4422 -4.0626 -0.5693 1.7154 5.5119 0.7846 1.1220 0.6346 -0.7697 -0.2970 6.5710 -2.4393 1.0648 1.6697 1.5408 -1.0932 -0.1693 -2.4609 -3.0611 -2.6651 -1.5363 -1.9946 -2.1396 -1.3415 -2.1671 -0.6539 -0.5993 -0.1955 4.1694 -1.9921 -0.2943 3.5878 -1.2713 -0.9295 1.4113 0.4963 0.4086 -1.8463 3.5678 2.2844 -3.9379 3.7054 2.0172 -2.5173 2.4653 1.8847 -4.5960 2.7248 1.3791 -1.8532 1.4068 1.1961 -3.8801 -1.0820 -0.8305 -0.0090 -0.6742 0.3659 5.5493 -1.9353 0.0445 2.1272 1.5375 0.9417 -2.5665 0.4839 -0.1194 -0.3354
-0.7201 -2.3018 -4.2616 -1.4814 2.0199 5.0029 1.7309 -0.7018 0.1859 -0.9064 0.5877 6.6826 -2.5806 0.5656 1.8663 0.2040 1.2283 0.4439 -0.4901 -2.9005 -2.8963 -1.5085 -2.3621 -1.9214 -0.9661 -2.4510 -0.5142 -0.6457 -0.0791 4.3812 -1.8779 -0.7061 3.7675 -1.1229 -1.2221 1.5677 0.3304 0.2512 -1.8140 3.1986 2.1214 -4.1772 3.3062 2.1535 -2.7293 2.1988 1.4392 -4.7637 2.3983 1.5138 -1.9702 1.2238 0.7426 -3.9451 -1.0100 -1.0935 0.1395 -1.0335 0.8398 5.4943 -1.9133 -0.3654 2.3065 1.3312 0.7602 -2.6048 0.3345 -0.0396 -0.2406
-0.8910 -2.7555 -4.3821 0.2455 0.8534 6.1995 1.6023 -0.8260 0.1885 -1.8463 1.5655 5.6398 -2.7351 0.6976 1.8037 0.2451 1.2142 0.5269 -0.9386 -3.1904 -2.9382 -1.5703 -2.1073 -2.0992 -1.2105 -2.3008 -0.6443 -0.6588 -0.0221 4.2373 -1.9732 -0.5441 3.7023 -1.3451 -1.1395 1.4801 0.3403 0.3610 -1.7786 3.4112 2.0441 -4.0113 3.4145 2.1456 -2.5621 2.4480 1.3432 -4.6357 2.4462 1.5504 -1.8428 1.4075 0.6945 -3.8584 -1.1647 -0.9683 0.0619 -0.8635 0.8753 5.4189 -2.0670 -0.2369 2.2353 1.4247 0.7671 -2.5159 0.2789 -0.0210 -0.2256
-3.8050 -2.0337 -3.8259 1.2107 -1.4498 3.2710 -0.5289 2.2406 -0.5512 1.4479 -0.9102 5.4752 -2.4590 1.5971 2.2626 -1.2802 0.8050 -2.4190 -2.8435 -2.3426 -2.7047 -3.2641 -1.5914 -1.4653 -2.1311 -1.5481 -0.4706 -0.4692 -0.1240 4.2465 -0.3478 0.9500 3.1880 -1.2846 -0.1540 1.2930 0.6251 -0.0428 -1.0886 4.3227 1.0066 -2.6440 4.1073 -0.2657 -1.9790 3.3107 1.8829 -2.7734 2.8942 -0.5711 -1.4873 1.9984 1.5545 -2.2503 -1.8831 -0.1254 -0.0222 0.8350 -0.8379 4.4200 -1.4932 0.8419 2.2219 1.8062 0.3768 -1.6293 -0.7685 0.7413 -1.0671
-3.8305 -3.7543 -1.5093 -1.7900 1.4547 5.3939 1.0008 -1.5530 -2.4833 -3.2724 -0.0610 4.5547 -0.9347 1.1735 1.0434 2.3689 -1.0038 -0.4981 -2.7452 -3.7250 -0.4616 -1.4687 -3.2038 -1.0709 -0.4628 -2.8877 0.0105 -0.9222 -0.3274 4.1223 -0.1346 0.5862 3.2116 0.0261 -0.9201 1.3521 0.8174 0.7510 -1.3004 2.8609 3.4318 -3.7485 3.3263 2.0619 -3.6150 1.7477 3.8291 -3.1072 2.6522 1.1891 -2.8432 1.0179 2.8874 -2.2788 -0.1932 -1.4083 0.0132 -2.1302 0.3566 4.6787 -0.4246 0.3185 1.7622 1.4407 1.6163 -2.1653 1.0503 -0.8117 -1.0610
-3.6398 -4.8946 -1.2964 0.9961 -0.1740 4.9671 -0.0365 -0.7489 -2.9754 -0.3740 1.4773 5.7457 -0.8394 -1.9727 2.1846 -1.1094 1.2364 -1.9722 -3.7316 -3.4533 -1.7311 -2.3828 -2.7975 -1.5818 -2.5395 -1.4360 -0.9520 -0.2956 0.9710 3.3905 -1.5186 0.1360 3.0859 -1.3319 -0.2108 0.7449 1.0637 0.5477 -0.9979 4.0809 2.8007 -2.7912 2.8309 2.5618 -3.4906 4.2769 2.2820 -1.5660 1.8647 1.8241 -2.9142 3.2367 1.4820 -0.9449 -1.1937 -0.9417 -0.4875 0.0688 0.8033 4.8283 -1.1811 -0.8134 1.9759 2.0831 1.2518 -1.5962 -0.3281 0.0689 -1.6257
-2.0702 -4.4612 -3.7628 0.1547 2.0525 4.6015 1.5462 -1.7795 -1.5337 -1.7760 2.3024 5.7908 -0.4207 -1.6612 2.8477 1.6364 -0.5312 0.5920 -2.4189 -3.2268 -2.9700 -1.4294 -3.0477 -1.8457 -1.7376 -1.7695 -1.1070 -1.3790 0.2798 4.5455 -1.7628 0.3329 3.0842 -1.3263 -0.6425 0.9720 0.4469 0.5858 -1.2644 2.9307 3.0488 -3.5093 3.4885 1.9466 -2.7459 1.5998 3.2381 -3.5467 2.6771 1.1244 -2.0565 0.7235 2.3455 -2.8113 -0.7380 -1.5332 -0.0006 -1.0617 1.6524 5.0420 -1.0878 -0.7759 2.3238 1.2385 1.3185 -2.1132 0.7662 -0.7991 -0.5326
-2.9451 -5.3610 -1.4730 -2.6132 2.1663 4.3277 2.5740 -0.4967 0.1704 -2.5480 1.9251 2.0594 1.3290 -1.2067 2.7861 1.7473 -1.6028 -1.8800 -2.7669 -3.8923 -1.1865 -1.4654 -3.6630 -0.4568 -1.0377 -2.2390 -0.6917 -0.6599 1.2617 3.4058 -0.7572 -0.2470 3.4587 -0.3847 -0.9759 1.2327 0.5547 0.4571 -1.2008 2.0311 3.7017 -3.3384 2.8424 2.5091 -3.1666 0.8013 3.7661 -2.7983 2.3685 1.4650 -2.4628 0.2911 2.6435 -2.0353 0.1262 -1.8402 0.1896 -2.0296 1.8078 3.1594 0.1966 -0.8553 2.4743 1.0521 1.5503 -1.8577 1.2936 -0.8738 -0.7158
-3.6258 -3.6328 -3.3583 -1.2689 2.3909 4.3795 1.1844 -1.6452 -1.7693 0.6054 1.6791 5.4672 -2.1922 -1.2625 2.5354 -0.8237 -0.5014 -2.6441 -2.6066 -3.8704 -2.2731 -2.7541 -2.8266 -1.1959 -1.4906 -2.7795 -0.3752 0.1700 0.9809 3.1946 -0.0748 -0.5025 3.3507 -0.3672 -1.2173 1.0913 0.4900 0.7558 -0.9859 3.4884 3.1198 -2.6459 3.0149 1.9385 -3.3494 2.9723 3.4434 -1.4464 2.0547 1.1691 -2.8038 1.9478 2.6047 -0.8529 -1.0657 -1.3489 -0.1664 -0.1157 1.6874 4.4816 -1.0174 -1.0035 2.2911 1.5259 1.5003 -1.4923 -0.0513 -0.6790 -1.4326
-3.3949 -5.1726 -2.1668 -0.7180 2.3146 2.8858 -0.2149 -0.8543 -2.7958 0.6912 2.4586 4.6681 -0.5425 -2.5093 2.3615 -1.2540 0.9741 -1.5051 -3.4254 -4.0522 -1.1585 -2.2162 -3.1708 -1.3468 -2.3978 -1.8799 -0.5873 0.3474 0.3302 3.6005 -0.9613 -0.4081 3.4294 -1.1218 -0.6635 1.0709 1.0562 0.3266 -0.8562 3.5986 3.1381 -2.5894 2.3891 2.7217 -3.2772 3.8868 2.6406 -1.3736 1.5590 1.8308 -2.7057 2.9894 1.6826 -0.7539 -1.0508 -1.3160 -0.2121 0.1284 1.7971 3.8072 -0.8336 -1.3228 2.2469 1.8654 1.3033 -1.3870 -0.3801 -0.1690 -1.3548
-2.8212 -3.7673 -3.4913 0.7427 0.6352 5.2375 1.3028 -1.5072 -0.1353 1.5021 1.1783 3.1554 -2.9808 0.7841 1.5397 0.0176 -1.4241 -2.2406 -2.5612 -3.9119 -2.0131 -2.8889 -2.6186 -1.3089 -1.9819 -2.4566 -0.1143 -0.8278 1.4611 3.7049 -1.6419 0.2138 3.4434 -1.1875 -0.6784 1.3018 0.3920 0.7396 -1.1052 3.7441 2.6493 -2.6677 2.5927 3.3957 -2.1925 3.7406 1.3050 -2.6262 1.5219 2.7447 -1.7034 2.5857 0.6002 -2.0989 -1.4253 -1.0560 -0.0678 0.5934 1.0771 3.9660 -2.0258 0.1654 1.9955 1.5217 1.2940 -1.6530 0.0852 -0.8233 -0.9260
-3.6466 -2.8323 -3.9834 1.7415 0.0247 4.9928 -1.2532 0.9700 -2.2902 1.9085 -0.2776 2.7364 -2.7984 1.0598 2.3365 -0.7579 1.8940 -0.0594 -2.5298 -2.4638 -3.0398 -3.0976 -1.7382 -1.8454 -2.1050 -1.7845 -0.7119 0.0244 0.9036 3.6707 -1.1104 -0.0920 3.5847 -1.5841 -0.6508 1.3325 0.6112 -0.0464 -0.7653 4.2493 1.1479 -2.3715 4.0103 -0.2248 -1.9628 3.2678 2.0625 -2.2719 2.8037 -0.5857 -1.4909 1.9728 1.6815 -1.7369 -2.0040 -0.4391 -0.0331 1.3142 0.1508 3.7138 -1.9264 0.1981 2.3616 1.7443 0.4017 -1.3891 -0.8345 0.6405 -0.7774
-3.2220 -3.8798 -3.8273 0.1676 2.3128 2.9184 -1.0201 1.5073 0.0891 1.6567 1.7797 4.5596 -2.4850 -0.0121 2.5421 -1.5658 0.4124 -2.0453 -2.5012 -3.9248 -2.5033 -2.5608 -2.5685 -1.8463 -1.5534 -2.5042 -0.7249 0.8891 0.0871 3.0181 -0.3686 -0.6134 3.4869 -1.0381 -1.3478 1.3143 0.6282 -0.1680 -1.0835 3.7246 2.2833 -2.3581 2.3437 2.6827 -2.5573 4.0086 1.1556 -1.6832 1.3443 1.9193 -2.0792 2.9324 0.3367 -1.1586 -1.6668 -1.1975 0.0241 0.9582 1.4586 3.6110 -1.4160 -0.6006 2.4081 1.6522 0.7160 -1.3228 -0.9080 0.1653 -0.7815
-4.0821 -3.5318 -2.0650 -1.3922 2.6214 3.2990 2.0838 -1.4304 -1.1097 -0.2116 2.0390 5.1630 -2.2819 -1.2725 2.0216 0.2003 -1.2840 -2.7019 -3.1038 -3.5576 -0.9165 -1.6954 -3.5534 -1.4577 -0.6976 -3.2466 -0.3672 0.1371 0.8716 3.0746 -0.4294 -0.5060 3.3264 -0.1417 -1.4162 1.1274 0.4470 0.6158 -1.1616 2.9095 3.6342 -2.6241 2.9330 2.3100 -3.2242 2.1038 3.8844 -1.5760 2.1514 1.3329 -2.7300 1.2725 2.8246 -1.0340 -0.5267 -1.7572 -0.2197 -0.4947 1.8743 3.9863 -1.0721 -1.0737 2.0889 1.3270 1.5903 -1.5633 0.5638 -0.9692 -1.3363
-3.8869 -2.6422 -3.5832 1.7015 0.1111 2.5848 -0.3824 -1.0917 -2.4100 1.7289 0.6464 4.8035 -3.0300 0.7084 2.0759 0.8359 -1.7491 -0.3662 -3.3991 -3.0063 -2.2045 -3.4053 -1.7841 -1.3223 -2.4693 -2.0161 -0.1640 -0.1124 1.3399 3.4118 -1.2201 0.3265 3.5905 -1.2775 -0.6894 1.4469 0.5615 0.6809 -0.7477 3.9574 2.1631 -2.6548 3.5707 0.7722 -2.8205 3.1982 2.9859 -1.9095 2.4603 0.3025 -2.2222 1.9980 2.4819 -1.2681 -1.6019 -0.8053 0.0491 1.1897 0.6701 3.7076 -1.9510 0.1669 2.2918 1.6385 1.1966 -1.4261 -0.1047 -0.7680 -0.8629
-4.3657 -4.4111 -1.5911 -0.0478 2.3039 2.5949 -1.0973 0.1780 -2.6165 1.3670 1.8515 4.3261 -2.4545 -0.2453 2.1499 -1.2313 1.2775 -0.4102 -3.1200 -3.6810 -2.0269 -2.1211 -3.6821 -0.8976 -1.0859 -2.6114 -1.1351 0.8384 0.1411 2.7118 -0.3344 -0.7035 3.1597 -0.8860 -1.5025 0.9864 0.8730 0.0432 -0.9136 3.7030 2.8445 -2.1420 2.2936 3.0543 -2.4258 4.0972 1.7562 -1.4575 1.3797 2.1573 -2.0119 3.1126 0.7895 -1.0086 -1.4143 -1.3618 -0.3507 0.7551 1.4984 3.3298 -1.3506 -0.7715 2.0567 1.8081 0.9840 -1.2688 -0.7187 0.0908 -1.0591
-4.4416 -3.7793 -3.0683 1.1833 0.5538 4.9978 -0.2319 -1.1954 -2.5256 1.3010 -1.0664 3.3917 -1.8673 1.9157 0.8297 0.7662 -1.5486 -0.2896 -4.1601 -3.3550 -1.6494 -3.2757 -2.1340 -1.6519 -2.4356 -2.1028 -0.3983 0.4640 1.1287 2.8529 -1.0450 1.0527 2.8988 -1.6295 -0.3844 1.1044 0.3741 0.8113 -0.9883 4.1786 2.2705 -1.8542 3.8912 0.8516 -1.9747 3.2113 3.1235 -1.4725 2.6580 0.3870 -1.7065 1.8821 2.6210 -1.1739 -1.7506 -0.7651 -0.2800 1.0198 0.0688 3.7441 -1.5553 0.9356 1.4974 1.6200 1.3063 -1.2793 -0.1572 -0.6953 -1.0043
-3.4921 -4.8289 -2.5500 -0.0606 2.1004 5.1471 0.3243 -1.2142 -2.7428 -1.8599 2.4773 3.7940 -2.4097 -0.8611 1.9746 1.9056 -1.3386 -0.8539 -2.3338 -4.7057 -1.5922 -1.9165 -3.2607 -1.5076 -0.8515 -3.0918 -0.4544 -0.0663 1.0424 3.0628 -0.4868 -0.3878 3.3138 -0.2911 -1.4164 1.1852 0.5377 0.7289 -1.0329 2.9877 3.7118 -2.5919 1.9117 4.0116 -1.6645 3.2148 2.4419 -2.9733 1.1444 3.0188 -1.1800 2.3807 1.3685 -2.4588 -0.6369 -1.6228 -0.1967 -0.7868 1.9376 4.0159 -1.1894 -0.8959 2.0923 1.3915 1.6480 -1.5888 0.5830 -0.8633 -1.1978
-3.9298 -3.3748 -3.4091 1.6910 0.4283 4.6903 -0.6904 -0.6361 -2.6449 2.1109 0.6064 2.4549 -2.9452 0.6486 2.1571 0.6133 -1.6874 -0.8294 -4.0000 -3.1571 -1.9185 -3.4187 -1.8113 -1.5594 -2.5588 -1.9561 -0.3269 -0.0217 1.2931 3.3479 -1.0098 0.1553 3.4729 -1.2713 -0.7024 1.2787 0.4498 0.7952 -0.7969 4.1530 2.1075 -2.1842 3.5814 0.8686 -2.6822 3.4880 2.8376 -1.2715 2.3846 0.4488 -2.2336 2.2008 2.3818 -0.7807 -1.7259 -0.7208 -0.0906 1.3652 0.7394 3.4132 -1.8531 0.0971 2.2367 1.6785 1.2285 -1.2319 -0.2918 -0.5900 -1.0920
-4.4854 -3.5629 -3.5245 1.2779 2.3145 3.4400 0.0338 -1.1777 -2.6249 0.7771 1.1136 5.3158 -1.8958 1.0828 1.2115 1.0973 -1.7712 -0.4706 -3.6615 -3.7673 -2.2768 -2.8862 -2.5087 -1.9882 -2.0836 -2.6655 -0.7206 0.5018 0.1345 3.1286 -0.9987 -0.0485 3.1181 -1.4235 -1.1933 1.0841 0.3886 0.5930 -0.7437 3.6732 2.8548 -1.9401 3.5824 1.4498 -2.2964 2.6873 3.4372 -1.2348 2.5150 0.7242 -1.9168 1.5353 2.6562 -0.8256 -1.5022 -1.3296 -0.3460 0.8445 1.2146 4.1004 -1.4852 0.0372 1.7047 1.4517 1.3555 -1.1561 0.0562 -0.9428 -1.0382

>  <OB_ATOM_TYPES> (1a0qB1)
C.3 O.co2 O.3 O.co2 O.2 O.2 C.3 C.3 C.3 C.3 C.3 N.am O.3 C.ar C.ar C.ar C.ar C.ar C.3 C.2 C.2 C.ar P.3

>  <ENSEMBLE_RMSD> (1a0qB1)
1.063 1.364 1.666 1.696 1.713 1.714 1.794 1.818 1.839 1.853 1.855 1.871 1.909 1.919 1.933 1.955 1.958 1.991 1.997 2.021 2.034 2.097 2.107 2.112 2.128 2.165 2.206 2.210 2.220 2.243 2.270 2.326 2.413 2.487 2.489 2.525 2.686 2.755 2.793 2.796 2.805 2.820 2.849 2.952 2.993 3.015 3.043 3.067 3.079 3.226

$$$$
