
 OpenBabel03071213D

 23 23  0  0  0  0  0  0  0  0999 V2000
   -2.4680   53.8830  -12.3160 C   0  0  0  0  0
   -0.8960   53.0810   -9.4020 N   0  0  0  0  0
   -7.4390   57.4730  -10.7910 O   0  0  0  0  0
   -6.4010   56.6980   -8.4110 O   0  0  0  0  0
   -3.8180   57.8920  -10.0820 O   0  0  0  0  0
   -1.3720   58.0410   -4.8130 O   0  0  0  0  0
    1.2160   53.8670   -9.9260 N   0  0  0  0  0
   -1.3800   55.9770  -11.9750 O   0  0  0  0  0
   -3.1720   59.1980   -5.4520 O   0  0  0  0  0
   -6.8360   58.4830   -9.9830 C   0  0  0  0  0
   -0.1890   55.1810   -8.6950 N   0  0  0  0  0
   -2.6540   55.1780  -10.2990 N   0  0  0  0  0
   -3.2710   57.7090   -7.6700 O   0  0  0  0  0
   -1.4680   56.3850   -6.9670 C   0  0  0  0  0
   -5.8270   57.8570   -9.0220 C   0  0  0  0  0
   -4.6460   57.3120   -9.6380 C   0  0  0  0  0
   -1.5020   55.5410   -8.2050 C   0  0  0  0  0
   -2.2900   56.1690   -9.2970 C   0  0  0  0  0
   -3.5940   56.7640   -8.6860 C   0  0  0  0  0
    0.0430   54.0300   -9.3200 C   0  0  0  0  0
   -2.1140   55.1230  -11.5200 C   0  0  0  0  0
   -2.2500   58.2420   -5.5910 C   0  0  0  0  0
   -2.3300   57.4010   -6.7980 C   0  0  0  0  0
  1 21  1  0  0  0
  2 20  1  0  0  0
  3 10  1  0  0  0
  4 15  1  0  0  0
  5 16  1  0  0  0
  6 22  1  0  0  0
  7 20  2  0  0  0
  8 21  2  0  0  0
  9 22  2  0  0  0
 10 15  1  0  0  0
 11 17  1  0  0  0
 11 20  1  0  0  0
 12 18  1  0  0  0
 12 21  1  0  0  0
 13 19  1  0  0  0
 13 23  1  0  0  0
 14 17  1  0  0  0
 14 23  2  0  0  0
 15 16  1  0  0  0
 16 19  1  0  0  0
 17 18  1  0  0  0
 18 19  1  0  0  0
 22 23  1  0  0  0
M  END
>  <MOLID> (1a4gA1)
1a4gA1

>  <SMILES_CANONICAL> (1a4gA1)
OC[C@H]([C@H]([C@@H]1OC(=C[C@@H]([C@H]1NC(=O)C)NC(=N)N)C(=O)O)O)O	

>  <FINGERPRINT> (1a4gA1)
0000000010000000000000000000000010001001000001001111001000000000000000000001000000000001000000011000010000000001000011010000000110000000001111000000000011000001000000000010000000000010000000000000000000001000000000011000000000111000101000000010110000001000000000010000000000000110000000000000000100010000000000001100101010000000001000000000000001000000010000000000000111000000000000001000000000000010101100000000001000000001100010010010000000000000000000100000000000010100000010000011100100011011100100000000100000110100001000010000100000010100100000000000000000000101010000000101000111000001011000000001100000000000000000001110001000000001000000000000000000000000001000000111000000010101001011111011000000010111000000001000000010000000000010100001000000000000000111000000000000000010000101000000001110001000100000001000110000000000010000001100000001000000000000001001000000000000000000010010000100001000000000001100001001010000000000000000010000000100000000011010110000001110000000000000000000000000001000000100101100000001

>  <MACCS166> (1a4gA1)
000000000000000000000000100000000000000000100000000011001000000000000001000111100101000011010010111000010101110000001011001000000011100111111100010011111111111110111000

>  <OB_MW> (1a4gA1)
332.133

>  <OB_logP> (1a4gA1)
-1.994

>  <OB_PSA> (1a4gA1)
198.22

>  <OB_MR> (1a4gA1)
75.6537

>  <OB_ATOMIC_CHARGES> (1a4gA1)
0.0964264466 0.1354167752 -0.2174865591 -0.2174439164 -0.2163608078 -0.237136846 0.1354167752 -0.2733269408 -0.237136846 0.2175299836 -0.0834839732 -0.1993824675 -0.4683447259 0.0619333041 0.2185386427 0.2261606738 0.2296763474 0.1816271109 0.2224294393 0.5348360892 0.242046157 0.4208470659 0.2172182717

>  <MCT_HBD> (1a4gA1)
8

>  <MCT_HBA> (1a4gA1)
11

>  <ENSEMBLE_TOTAL> (1a4gA1)
46

>  <ENSEMBLE_COORDS> (1a4gA1)
0.3432 -2.5294 -3.4091 1.9152 -3.3314 -0.4951 -4.6278 1.0606 -1.8841 -3.5898 0.2856 0.4959 -1.0068 1.4796 -1.1751 1.4392 1.6286 4.0939 4.0272 -2.5454 -1.0191 1.4312 -0.4354 -3.0681 -0.3608 2.7856 3.4549 -4.0248 2.0706 -1.0761 2.6222 -1.2314 0.2119 0.1572 -1.2344 -1.3921 -0.4598 1.2966 1.2369 1.3432 -0.0274 1.9399 -3.0158 1.4446 -0.1151 -1.8348 0.8996 -0.7311 1.3092 -0.8714 0.7019 0.5212 -0.2434 -0.3901 -0.7828 0.3516 0.2209 2.8542 -2.3824 -0.4131 0.6972 -1.2894 -2.6131 0.5612 1.8296 3.3159 0.4812 0.9886 2.1089
0.0021 -2.0344 -3.6808 2.1234 -3.3828 0.1138 -4.7025 0.9106 -0.1906 -1.8333 2.9040 -0.9046 -2.5151 -0.6675 -1.2732 0.9181 1.2259 4.2007 4.3436 -2.7828 -0.3389 0.5916 0.2490 -3.2793 -0.5924 2.6767 3.2851 -3.5565 1.6597 0.1853 2.8223 -1.1338 0.3229 0.6304 -1.2980 -1.5373 -0.6325 0.8732 1.0258 1.3770 0.1259 1.7677 -2.6067 1.7200 -0.9892 -1.7192 0.4966 -1.1470 1.5476 -0.5699 0.5690 0.5239 -0.4952 -0.3904 -0.6349 0.2845 -0.1502 3.1288 -2.4452 0.0096 0.4375 -0.8807 -2.8327 0.1300 1.6978 3.2126 0.2168 0.8664 2.0217
0.2648 -2.5789 -3.3339 2.2180 -3.0964 0.1138 -4.6029 2.7578 -1.3386 -1.8129 1.8941 -1.7974 -3.1989 -0.4134 0.6563 1.6287 1.2933 4.0571 4.2979 -2.4284 -0.7393 1.3587 -0.4839 -2.9950 -0.1964 2.6044 3.6334 -4.0853 1.4364 -1.3554 2.6507 -0.8181 -0.3183 -0.0419 -1.3708 -1.3426 -0.6530 0.7777 1.4362 1.5997 0.4130 1.4697 -2.6919 1.4588 -0.7663 -2.2686 0.0744 -0.2986 1.4726 -0.3586 0.3123 0.1970 -0.5171 -0.2528 -0.9177 0.1103 0.3344 3.1046 -2.1244 -0.3021 0.6042 -1.3445 -2.5593 0.6004 1.7417 3.3075 0.4723 0.9727 2.0789
0.4755 -2.3934 -3.4698 2.0663 -3.1356 0.1817 -3.9344 1.7235 -2.3336 -2.3262 2.7122 -0.2148 -2.9036 -0.8885 -0.2577 -0.2135 2.6145 3.4675 4.1158 -2.6365 -0.8447 1.4817 -0.2728 -3.0278 1.4657 1.2519 4.2208 -4.2914 1.6034 -0.9651 2.6660 -0.8943 -0.2471 0.0219 -1.2264 -1.4737 -0.6304 0.8264 1.3642 1.5688 0.3307 1.5144 -3.0495 1.4954 -0.1026 -2.1843 0.3112 -0.5006 1.4774 -0.3741 0.3118 0.2363 -0.4239 -0.3383 -0.8783 0.2416 0.2131 2.9914 -2.2380 -0.3116 0.7329 -1.1661 -2.6518 0.6630 1.5931 3.3725 0.4489 0.9457 2.0931
-0.7505 -2.1663 -3.2927 2.3106 -3.1866 -0.0567 -3.3932 0.9687 -2.8059 -1.5472 2.4578 -1.1022 -3.0647 -0.4556 0.4550 1.5959 1.3105 4.1970 4.4762 -2.4481 -0.5564 -0.2691 0.1610 -3.0309 -0.2548 2.5427 3.6628 -3.7305 1.6582 -1.6128 2.7889 -0.8747 -0.1401 0.2414 -1.3468 -1.3260 -0.5819 0.7469 1.4781 1.6515 0.2691 1.6670 -2.5831 1.6166 -0.6233 -2.0998 0.1968 -0.3570 1.5840 -0.4413 0.4659 0.3459 -0.5249 -0.1934 -0.7838 0.1258 0.3359 3.2401 -2.1810 -0.2233 -0.2464 -0.9665 -2.5541 0.5678 1.6801 3.4069 0.5026 0.8576 2.2061
-0.1870 -1.7787 -3.4835 1.9103 -3.0612 0.5938 -3.9322 0.2075 -2.9363 -1.9104 2.3468 -1.4958 -2.9642 -0.5802 0.3933 2.1012 1.1805 4.1094 3.6009 -2.8877 -1.0251 0.7488 0.3338 -2.8751 0.2433 2.5103 4.0593 -3.8414 1.0159 -1.7746 2.5153 -0.9500 -0.2641 -0.1956 -1.0406 -1.2394 -0.4709 1.0564 1.6722 1.7196 0.3921 1.5774 -2.4015 1.0259 -1.3224 -2.2610 0.6250 0.1359 1.4484 -0.3048 0.4005 0.1452 -0.2823 -0.1067 -0.8431 0.4534 0.5597 2.7011 -2.3229 -0.2651 0.1865 -0.6961 -2.5208 0.9839 1.6885 3.5473 0.7030 1.0685 2.2601
-0.0094 -2.4123 -3.5591 2.5480 -3.2188 -0.4762 -4.5287 2.6445 -0.1966 -1.7665 2.5132 -1.3125 -2.7977 -0.9402 -0.6800 0.9804 1.4011 4.1041 4.6168 -2.4981 0.3353 0.2389 -0.0479 -3.3004 -0.7205 2.6169 3.1760 -3.4784 1.7678 0.1801 2.8748 -0.9465 0.0471 0.5215 -1.4752 -1.4751 -0.6982 0.7158 1.0876 1.4686 0.2201 1.6528 -2.6556 1.4415 -1.0457 -1.9077 0.1220 -0.9604 1.5861 -0.5274 0.4748 0.4638 -0.6124 -0.3715 -0.7317 0.0645 -0.0529 3.3645 -2.2430 0.0580 0.2564 -1.1583 -2.7858 0.1199 1.7346 3.1215 0.2548 0.8382 1.9789
0.3374 -2.1493 -4.0372 2.7511 -3.3735 0.8669 -5.0952 2.1413 0.2782 -2.2305 2.9682 -0.3609 -2.7952 -0.4661 -1.4734 1.1463 0.8276 3.9254 4.5024 -1.8122 0.6690 2.0024 -0.7290 -3.0989 -0.3769 2.4157 3.3053 -3.8763 1.4260 0.4257 2.4231 -1.4346 -0.3640 0.0311 -1.1950 -1.9118 -0.6834 0.8579 0.9125 1.3875 0.0023 1.3292 -2.9579 1.8059 -0.7124 -2.0328 0.6862 -1.1572 1.3345 -0.6598 0.1003 0.1994 -0.4755 -0.7128 -0.8692 0.3509 -0.2861 3.2622 -2.1576 0.4582 0.9047 -1.2586 -2.9780 0.3292 1.4546 3.0548 0.3061 0.7748 1.7674
0.0143 -2.0512 -3.6842 2.1093 -3.3902 0.1411 -4.7030 0.9267 -0.2342 -1.8301 2.9179 -0.9389 -2.5089 -0.6558 -1.2780 -0.6442 2.6250 3.1912 4.3360 -2.7990 -0.2954 0.6055 0.2321 -3.2904 0.8968 1.3313 4.2807 -3.5630 1.6829 0.1461 2.8079 -1.1379 0.3096 0.6053 -1.3021 -1.5339 -0.6008 0.8843 1.0281 1.3710 0.1155 1.7694 -2.6023 1.7333 -1.0192 -1.7142 0.5098 -1.1554 1.5354 -0.5764 0.5671 0.5126 -0.4902 -0.3908 -0.6368 0.3055 -0.1513 3.1176 -2.4561 0.0346 0.4370 -0.8923 -2.8359 0.2267 1.6000 3.3013 0.2281 0.8869 2.0383
-0.0590 -2.6530 -3.3012 2.3198 -2.9954 -0.2568 -1.3779 2.6724 -1.5502 -4.3804 1.2085 -0.6728 -3.2640 -0.6284 0.9778 1.8104 1.6672 3.7635 4.3986 -2.0032 -0.7030 0.9303 -0.4913 -3.0876 -0.3080 2.5190 3.6659 -2.3685 1.6894 -1.8075 2.4724 -0.6730 -0.5741 -0.2565 -1.4316 -1.3023 -0.7444 0.7284 1.5003 1.5277 0.5038 1.3194 -2.9736 1.2637 -0.4872 -2.4556 -0.1025 -0.0633 1.3427 -0.2968 0.1885 0.0320 -0.5512 -0.2456 -1.0559 0.0136 0.4411 3.1196 -1.8896 -0.4636 0.2728 -1.3880 -2.5740 0.5908 1.8310 3.2120 0.4266 1.0071 2.0208
0.7297 0.4721 -3.2572 2.0838 -3.3890 0.0885 -4.7151 0.7726 -0.2351 -1.9112 2.8880 -0.8417 -2.4776 -0.6866 -1.3509 1.0255 1.2873 4.1484 4.3687 -2.8855 -0.0258 -0.1713 -1.6997 -3.6732 -0.5912 2.6460 3.2755 -3.6060 1.5535 0.1844 2.8230 -1.1470 0.2462 0.6787 -1.2627 -1.5893 -0.6128 0.8486 1.0170 1.4004 0.1028 1.7436 -2.6425 1.6826 -0.9719 -1.7183 0.4929 -1.1597 1.5561 -0.5826 0.5376 0.5277 -0.4982 -0.4192 -0.6366 0.2694 -0.1640 3.1304 -2.4914 0.1244 0.3419 -0.9217 -2.8726 0.1722 1.6992 3.1879 0.2447 0.8493 2.0071
0.0114 -2.0349 -3.7018 4.4147 -2.7729 0.0958 -4.6357 0.9820 -0.0478 -1.8124 2.9022 -1.0615 -2.5299 -0.6675 -1.2522 0.9850 1.2967 4.1545 2.1725 -3.4275 -0.1029 0.5182 0.2706 -3.3214 -0.7550 2.5325 3.3366 -3.4614 1.7357 0.2084 2.8112 -1.1411 0.2635 0.6401 -1.2691 -1.5721 -0.6349 0.8661 1.0158 1.3828 0.1172 1.7513 -2.5948 1.7218 -1.0293 -1.7195 0.4901 -1.1667 1.5461 -0.5676 0.5446 0.5208 -0.4843 -0.4137 -0.6388 0.2884 -0.1652 3.0587 -2.4967 0.1081 0.4103 -0.8604 -2.8648 0.0896 1.6622 3.2138 0.2211 0.8563 2.0069
0.6510 -2.1993 -3.7794 2.0798 -3.2241 0.4393 -4.8881 2.2409 0.1363 -2.0550 2.6932 -1.0037 -2.8352 -0.8723 -0.8706 -0.6265 2.6569 3.0958 4.1665 -2.7823 -0.5391 1.8718 -0.3089 -2.9808 0.9416 1.3501 4.1341 -3.6453 1.6129 0.4079 2.7240 -1.0058 -0.0366 0.2943 -1.3549 -1.6099 -0.7290 0.8115 1.0257 1.4106 0.2893 1.5129 -2.8617 1.5337 -0.8823 -2.0200 0.2765 -1.0147 1.4752 -0.4589 0.3349 0.3372 -0.5164 -0.4831 -0.8311 0.1863 -0.1252 3.0264 -2.3554 -0.0639 1.0177 -1.1605 -2.7666 0.2635 1.6449 3.1684 0.2322 0.9426 1.9007
-0.2084 -1.8207 -3.4557 1.8557 -3.0963 0.4630 -3.9067 0.2577 -2.9452 -1.8765 2.3431 -1.5139 -2.9816 -0.5082 0.4627 0.3643 2.6951 3.7869 3.6872 -2.8513 -0.9816 0.7342 0.2963 -2.8819 1.8684 1.0576 4.3403 -3.8296 1.0324 -1.7592 2.4939 -0.9539 -0.2957 -0.2316 -1.0435 -1.2281 -0.4584 1.0578 1.6885 1.7232 0.3733 1.5682 -2.3927 1.0380 -1.3016 -2.2531 0.6709 0.1642 1.4366 -0.3207 0.3931 0.1299 -0.2874 -0.1010 -0.8376 0.4635 0.5745 2.7121 -2.3209 -0.2931 0.1625 -0.7225 -2.5115 1.0878 1.5784 3.5658 0.7205 1.0616 2.2614
0.6029 -2.6961 -3.4001 4.3232 -2.2585 -0.8295 -2.4947 3.3210 0.2889 -4.4113 0.9605 -1.0445 -2.9406 -1.2334 -0.1242 1.4842 1.7398 3.7441 2.3533 -3.0958 0.1358 1.3566 -0.4455 -3.1299 -0.6207 2.5684 3.4221 -2.5840 2.4325 -0.8143 2.6599 -0.7645 -0.3138 0.0552 -1.4571 -1.4739 -0.7913 0.7559 1.1922 1.4583 0.4912 1.3545 -3.1969 1.1376 -0.3275 -2.2936 -0.0572 -0.5891 1.4281 -0.3216 0.2183 0.1938 -0.5504 -0.4085 -0.9750 0.0488 0.0988 3.0624 -2.0893 -0.2894 0.7280 -1.3929 -2.6745 0.3196 1.8736 3.0763 0.2828 1.0330 1.8880
0.5750 -2.8677 -3.2163 2.4235 -3.0236 0.2304 -3.9637 3.2194 -0.5107 -1.9918 1.6334 -2.0839 -3.2951 -0.6553 0.4325 -0.5152 2.7205 3.1424 4.3061 -2.2408 -0.9315 1.2854 -0.5906 -3.0804 1.1597 1.4951 4.1135 -3.0116 2.2878 -0.0256 2.6146 -0.7412 -0.3261 -0.0313 -1.5191 -1.3877 -0.8249 0.6799 1.3079 1.4341 0.4205 1.4207 -2.8460 1.1839 -1.0451 -2.3339 -0.1213 -0.4599 1.3883 -0.3805 0.2754 0.1421 -0.6255 -0.3178 -1.0111 -0.0284 0.2168 3.1582 -2.0113 -0.3506 0.6692 -1.5194 -2.5731 0.4032 1.7328 3.1913 0.2652 0.9514 1.9779
0.2015 0.0716 -3.2681 2.5171 -3.1495 0.1868 -2.4158 3.1168 0.2710 -4.1053 0.7729 -1.4865 -2.6106 -1.3615 -0.5139 1.2679 1.7728 3.9270 4.4625 -2.2851 -0.7990 -0.5328 -2.2012 -3.2702 -0.7238 2.6873 3.2833 -2.4567 2.3592 -0.9285 2.9156 -0.8231 0.1739 0.6143 -1.4280 -1.4370 -0.7062 0.6992 1.1445 1.4682 0.3862 1.6461 -3.0135 0.9924 -0.6002 -1.9926 -0.1155 -0.8031 1.6052 -0.4009 0.5007 0.4788 -0.5870 -0.3184 -0.7631 -0.0022 0.0319 3.3216 -2.0939 -0.1898 0.0251 -1.2880 -2.6672 0.1962 1.9051 3.1166 0.2462 0.9726 2.0002
-0.0363 -2.4962 -3.7565 4.7329 -1.5819 -0.2145 -3.6989 3.4718 0.2234 -4.3725 1.1580 -1.2874 -2.9226 -1.1534 -0.5491 1.5283 1.1555 3.7666 3.2618 -2.6864 1.2527 1.4969 -0.7628 -3.1818 -0.2506 2.5228 3.3329 -2.7447 2.5837 -0.3407 2.4770 -1.2490 -0.4728 -0.1095 -1.4823 -1.6333 -0.6919 0.7791 1.0519 1.5114 0.2370 1.2149 -3.3157 1.1823 -0.3297 -2.3125 0.1173 -0.7411 1.3717 -0.5622 0.0807 0.1158 -0.6072 -0.5528 -0.9926 0.1249 -0.0482 3.4693 -1.8481 0.2778 0.5466 -1.4602 -2.8477 0.5278 1.6448 3.0041 0.4083 0.9123 1.7508
-0.8014 -2.1278 -3.4275 4.2902 -1.0881 -0.4431 -3.4311 0.0331 -2.7839 -2.3617 2.9343 -1.0732 -3.2591 -0.1815 0.3096 2.2160 0.8053 3.8996 3.4779 -2.9342 0.7772 0.5566 -0.2059 -3.0202 0.4442 2.2444 3.9904 -3.6672 1.2002 -2.0131 2.0190 -1.5366 -0.4474 -0.6802 -1.1581 -1.2795 -0.4773 1.0029 1.5922 1.5679 -0.0221 1.4289 -2.4135 1.5239 -1.2350 -2.3527 0.8900 0.1422 1.1491 -0.6773 0.2675 -0.1546 -0.4414 -0.1910 -0.9737 0.4601 0.4982 3.2679 -1.8876 0.0299 -0.2183 -1.0445 -2.5755 1.0979 1.3882 3.4195 0.7043 0.8228 2.1344
0.0366 -2.5141 -3.7250 4.5502 -1.3062 -0.2772 -5.3403 2.2011 -0.6975 -2.2787 2.8891 -0.1612 -2.9463 -0.6271 -0.7895 -0.0727 2.2805 3.4426 3.5762 -2.6217 1.4170 1.5303 -0.7267 -3.1967 1.5740 0.7946 4.0032 -4.1016 2.0095 -1.3597 2.2695 -1.6889 -0.3250 -0.2009 -1.3010 -1.7278 -0.5689 0.8157 1.0975 1.4465 -0.1203 1.3597 -3.0399 1.7019 -0.3240 -2.1655 0.5627 -0.8240 1.2888 -0.7806 0.1411 0.1062 -0.5509 -0.5776 -0.8984 0.3198 -0.0745 3.4638 -1.8872 0.3459 0.5627 -1.4028 -2.8708 0.7502 1.2347 3.2230 0.4582 0.7179 1.9003
1.8511 -0.0246 -2.8823 2.0522 -3.2789 0.4874 -4.8335 2.2107 0.1301 -2.0165 2.6608 -1.0098 -2.7761 -0.9024 -0.8762 -0.6721 2.6471 3.0670 4.0781 -2.8660 -0.6242 0.6943 -1.8988 -3.7850 0.9101 1.3789 4.1345 -3.6022 1.5572 0.3874 2.7231 -1.0683 0.0197 0.3182 -1.3917 -1.5837 -0.7158 0.8188 1.0112 1.4104 0.2642 1.5394 -2.8270 1.5010 -0.9085 -1.9758 0.2541 -1.0466 1.4792 -0.4963 0.3685 0.3553 -0.5404 -0.4678 -0.8023 0.1852 -0.1361 2.9786 -2.4240 -0.0738 0.8979 -1.1784 -2.8093 0.2372 1.6535 3.1592 0.2356 0.9383 1.8988
-0.7308 -2.1948 -3.2881 4.4588 -2.3571 -0.6975 -3.3891 0.9200 -2.8076 -1.5978 2.5010 -1.1077 -3.0316 -0.4390 0.4709 -0.2025 2.6123 3.4925 2.4133 -3.2648 0.0084 -0.3242 0.1467 -3.0364 1.4583 1.2980 4.3630 -3.7494 1.6322 -1.6345 2.7931 -0.8992 -0.0999 0.2470 -1.3378 -1.3277 -0.5498 0.7871 1.4583 1.6420 0.2497 1.6863 -2.6113 1.6315 -0.6323 -2.0906 0.2271 -0.3582 1.5813 -0.4503 0.4776 0.3538 -0.5071 -0.2006 -0.7658 0.1722 0.3160 3.1663 -2.2276 -0.2213 -0.2624 -0.9772 -2.5543 0.6811 1.5918 3.4745 0.5104 0.8852 2.2184
0.6834 0.3148 -3.3015 2.3843 -3.3383 -0.1732 -4.8157 2.1621 -0.0939 -1.9879 2.6583 -0.9418 -2.5701 -0.9444 -1.1573 -0.8179 2.4331 3.1435 4.4825 -2.6661 0.6226 -0.1596 -1.8848 -3.6829 1.1065 1.6002 4.0573 -3.6602 1.3933 0.2037 2.8670 -1.0529 0.0627 0.6211 -1.3826 -1.5892 -0.6211 0.7448 1.0069 1.4716 0.1781 1.6275 -2.7301 1.4525 -0.9849 -1.8142 0.2503 -1.1120 1.5988 -0.5409 0.4374 0.5085 -0.5673 -0.4503 -0.6850 0.1314 -0.1535 3.2664 -2.3652 0.2523 0.3127 -1.0752 -2.8880 0.2763 1.6417 3.1691 0.2827 0.8572 1.9458
0.3189 0.2090 -2.9845 3.4223 -2.7530 1.1635 -3.7345 0.1644 -2.6966 -1.9286 2.8595 -1.2670 -3.2594 -0.1091 0.2434 2.0522 0.7337 4.0041 4.2766 -1.4988 -0.6383 -0.3990 -2.0210 -3.4117 0.4712 2.3762 3.8453 -3.6372 1.4179 -2.0387 1.9471 -1.7424 -0.3119 -0.6879 -1.2000 -1.2858 -0.4934 0.9844 1.5750 1.5279 -0.1165 1.4787 -2.3011 1.4902 -1.3389 -2.3084 0.9235 0.0690 1.1184 -0.7793 0.3154 -0.1573 -0.4976 -0.1905 -0.9601 0.4359 0.4714 3.2661 -1.9389 0.0581 -0.2623 -1.1153 -2.5914 1.0555 1.4062 3.3934 0.6730 0.7710 2.1378
-0.0023 0.3188 -3.0548 4.4113 -2.4649 -0.6594 -3.4421 0.7931 -2.7640 -1.5636 2.4305 -1.1371 -3.0322 -0.4643 0.4892 1.7207 1.5448 4.0643 2.3055 -3.2860 -0.0337 -0.9322 -1.8736 -3.1979 -0.3452 2.4626 3.7341 -3.7362 1.5975 -1.6331 2.8091 -0.9393 -0.0493 0.3053 -1.3448 -1.3400 -0.5682 0.7719 1.4489 1.6451 0.2710 1.6853 -2.5873 1.5827 -0.6447 -2.0856 0.1741 -0.3564 1.5930 -0.4558 0.4926 0.3711 -0.5323 -0.1960 -0.7597 0.1266 0.3171 3.1159 -2.2818 -0.2104 -0.2901 -1.0572 -2.5412 0.5649 1.7263 3.3930 0.5028 0.9000 2.1936
-0.3216 -0.0106 -3.1414 2.6304 -3.0173 0.0254 -1.2584 2.8081 -1.1061 -4.2184 0.8806 -1.1270 -3.0006 -0.9529 0.5231 1.5375 1.7998 3.8712 4.5965 -2.0593 -0.8140 -0.8601 -2.3329 -3.1101 -0.5852 2.5525 3.4897 -2.2216 1.9597 -1.7067 2.8124 -0.6703 -0.1984 0.3447 -1.4801 -1.3563 -0.7029 0.6645 1.3434 1.5523 0.4175 1.5497 -2.9064 1.1410 -0.6350 -2.2063 -0.1911 -0.3779 1.5591 -0.3554 0.3859 0.3347 -0.5987 -0.2638 -0.8586 -0.0432 0.2435 3.3913 -1.9217 -0.3238 -0.3450 -1.3771 -2.5350 0.3686 1.8505 3.1996 0.3577 0.9363 2.0641
-1.2863 -2.2184 -3.4109 4.6490 -1.0275 -0.0326 -3.9006 1.0298 -2.5353 -1.4587 2.3965 -1.5315 -3.1200 -0.1053 0.5336 1.8282 0.8996 3.9529 3.7957 -2.7521 1.3274 -0.6809 0.0781 -3.1820 0.0523 2.2965 3.6048 -3.7955 1.9677 -1.4755 2.4306 -1.6492 -0.2659 -0.0637 -1.4708 -1.5401 -0.5106 0.7252 1.2927 1.6000 -0.1257 1.4624 -2.4784 1.8056 -0.7424 -2.1707 0.3497 -0.4224 1.4108 -0.8134 0.2594 0.1788 -0.6782 -0.4035 -0.8156 0.1408 0.1533 3.6262 -1.8448 0.4069 -0.6596 -1.0528 -2.7117 0.7848 1.3883 3.2520 0.5843 0.6607 2.0082
1.2188 -0.1430 -3.0814 3.5995 -2.7240 1.4660 -5.1015 2.6133 -0.8954 -2.1219 2.7984 -0.3569 -3.0109 -0.7121 -0.5847 -0.2711 2.1510 3.4586 4.5034 -1.3486 -0.2211 0.2596 -2.2101 -3.7728 1.6836 1.0458 3.8935 -4.0042 1.9389 -1.4882 2.2004 -1.8929 -0.1800 -0.1988 -1.4918 -1.6412 -0.5633 0.7829 1.0703 1.4339 -0.1835 1.3971 -2.9675 1.6593 -0.4205 -2.1763 0.4194 -0.8055 1.2584 -0.9155 0.2223 0.0811 -0.7058 -0.5086 -0.9033 0.2081 -0.0612 3.4812 -1.9301 0.3416 0.3948 -1.3785 -2.8769 0.7367 1.3005 3.1729 0.4673 0.7184 1.8719
-0.2442 -2.4646 -3.3766 4.1439 -2.0828 -1.3470 -1.6372 2.7445 -1.4878 -4.3813 0.9021 -0.7056 -3.1264 -0.7838 1.0473 -0.4779 2.2208 3.7546 2.5167 -2.9698 0.0958 0.7816 -0.3338 -3.0460 1.8037 2.2641 3.5929 -2.3792 1.5663 -1.7602 2.5948 -0.6425 -0.4578 -0.0795 -1.5182 -1.2246 -0.6905 0.7501 1.4674 1.5605 0.5903 1.3368 -2.9930 1.0813 -0.4651 -2.3766 -0.2388 -0.0289 1.4251 -0.2589 0.2354 0.1341 -0.5803 -0.2011 -0.9808 -0.0256 0.4467 3.0442 -1.9506 -0.5201 0.2089 -1.2992 -2.5549 0.7094 1.9205 3.1865 0.4438 1.1086 2.0123
0.1404 0.1149 -3.2801 4.6232 -2.2549 -0.3989 -2.4864 3.0876 0.3666 -4.0987 0.8088 -1.5305 -2.6266 -1.3580 -0.5433 1.3337 1.8071 3.8598 2.5301 -3.1789 0.1166 -0.4969 -2.1850 -3.3488 -0.7537 2.5733 3.3399 -2.4715 2.3738 -0.8602 2.8958 -0.8078 0.0351 0.5831 -1.4169 -1.4768 -0.6965 0.6910 1.1336 1.4960 0.3896 1.5910 -3.0355 0.9949 -0.6031 -2.0112 -0.1072 -0.8144 1.6050 -0.3852 0.4360 0.4599 -0.5751 -0.3573 -0.7789 0.0004 0.0161 3.2907 -2.1344 -0.0494 0.0111 -1.2647 -2.7131 0.2130 1.8671 3.1097 0.2739 0.9596 1.9716
-0.9634 -2.4356 -3.3001 4.3518 -0.9108 -0.8698 -3.6865 1.6923 -3.1160 -2.1761 2.6976 -0.8877 -3.2520 -0.5382 0.2765 0.2612 2.1916 3.8605 3.7721 -2.2973 0.9432 0.7278 -0.7703 -3.0543 2.2605 1.0812 3.8956 -3.8300 1.2439 -1.7764 2.1211 -1.4188 -0.5093 -0.6874 -1.2930 -1.2616 -0.5625 0.7813 1.6728 1.5395 -0.0362 1.4208 -2.4827 1.3252 -1.1019 -2.4289 0.6120 0.2362 1.1701 -0.6758 0.2305 -0.1543 -0.5485 -0.1960 -1.0232 0.2411 0.5633 3.4285 -1.5631 -0.0771 -0.1947 -1.3945 -2.5451 1.1741 1.3110 3.3999 0.6352 0.7051 2.1961
0.0565 -2.4618 -3.5843 4.6232 -2.2843 -0.1906 -3.8137 1.8700 0.7357 -1.6904 2.2125 -2.1775 -2.9663 -0.6373 -0.3160 -0.4977 2.7764 2.9562 2.5421 -3.3315 0.0968 -0.1027 -0.0983 -3.3017 0.5283 1.2344 4.3071 -2.8631 2.4601 -0.1333 2.8016 -0.9470 0.1373 0.4906 -1.4615 -1.4972 -0.7334 0.7801 1.0392 1.3447 0.1666 1.6959 -2.5593 1.5305 -1.2873 -1.9802 0.1662 -0.9392 1.4951 -0.5410 0.4974 0.4148 -0.5872 -0.3997 -0.7521 0.1385 -0.1075 3.2608 -2.2477 0.0501 0.1277 -1.1901 -2.7974 0.1149 1.6043 3.2252 0.1585 0.8483 1.9906
-0.5298 -2.0871 -3.9750 4.5624 -1.2279 0.6369 -3.8685 1.0414 0.9561 -2.0722 2.8907 -1.5907 -2.7841 -0.5973 -1.3086 1.1707 0.8945 3.9019 3.3736 -2.9773 1.6755 0.0792 0.1867 -3.5680 -0.5047 2.3047 3.2459 -3.0795 2.0870 0.4136 2.4297 -1.7368 -0.1085 0.2956 -1.4111 -1.8753 -0.6205 0.7535 0.8250 1.3270 -0.1974 1.4439 -2.7280 1.7713 -1.0221 -1.9101 0.5168 -1.2655 1.3632 -0.8571 0.2134 0.3100 -0.6405 -0.6972 -0.7576 0.2320 -0.3721 3.4403 -2.0171 0.7964 -0.0233 -0.9554 -3.1367 0.2606 1.3798 3.0328 0.2660 0.6467 1.7784
0.0602 -2.6550 -3.6828 4.6606 -1.5910 -0.3983 -2.6114 3.1647 0.8374 -4.4715 1.2076 -1.1727 -3.0226 -1.1096 -0.5463 -0.5930 2.0984 3.4276 3.2936 -2.5343 1.2681 1.4003 -0.7295 -3.2514 1.6458 1.6710 3.6054 -2.7193 2.6208 -0.4700 2.3949 -1.2527 -0.5242 -0.2062 -1.4313 -1.6956 -0.7370 0.7631 1.0384 1.4373 0.2110 1.1920 -3.3212 1.2421 -0.3381 -2.3747 0.1377 -0.7680 1.2966 -0.5671 0.0406 0.0425 -0.5940 -0.5916 -1.0583 0.1264 -0.0648 3.4342 -1.7955 0.2048 0.5110 -1.4814 -2.8721 0.5865 1.5896 3.0121 0.3517 0.9089 1.7496
0.3850 0.1712 -2.9865 3.4019 -2.7305 1.1635 -3.7353 0.1527 -2.6600 -1.9242 2.8752 -1.2769 -3.2571 -0.0870 0.2489 0.2624 2.1453 3.9057 4.2725 -1.5087 -0.6526 -0.5114 -1.9895 -3.4321 2.2357 0.9913 3.9638 -3.6321 1.4250 -2.0385 1.9389 -1.7346 -0.3357 -0.7040 -1.1830 -1.2921 -0.4670 0.9667 1.5786 1.5171 -0.1361 1.4764 -2.2975 1.5061 -1.3382 -2.3048 0.9456 0.0734 1.1100 -0.7774 0.2996 -0.1623 -0.4823 -0.2017 -0.9584 0.4511 0.4711 3.2559 -1.9351 0.0429 -0.2943 -1.1081 -2.6026 1.1845 1.2836 3.4262 0.6846 0.7585 2.1669
-1.3729 -2.5253 -3.2993 3.9481 -2.2733 1.2646 -0.8670 2.6010 -1.4330 -4.2093 1.3524 -1.0917 -3.1855 -0.5310 0.6030 1.3995 0.8652 4.0235 4.6341 -0.7212 -0.3691 -0.8302 -0.2033 -3.2179 0.1403 2.5990 3.2128 -2.1305 2.1144 -1.8495 2.4169 -1.5533 -0.3220 -0.1253 -1.6327 -1.5086 -0.6723 0.6194 1.2546 1.5168 -0.0409 1.3812 -2.8433 1.4495 -0.6909 -2.3468 0.0377 -0.3975 1.3531 -0.7713 0.2005 0.0910 -0.7668 -0.4214 -0.9583 -0.0165 0.1375 3.7064 -1.4564 0.1766 -0.7641 -1.3040 -2.6851 0.6541 1.5006 3.0968 0.4454 0.6569 1.9349
0.1387 -2.3759 -4.0246 4.4477 -1.0175 0.2789 -4.6501 2.6453 0.6716 -2.1781 2.9020 -0.7384 -2.9723 -0.6247 -1.2102 -0.5526 2.2366 3.2174 3.4494 -2.8703 1.3378 1.8978 -1.0236 -3.1489 1.2448 0.9830 3.8734 -3.7202 1.5834 0.5287 2.2960 -1.6422 -0.3177 -0.0798 -1.3404 -1.9229 -0.7317 0.7826 0.8610 1.2962 -0.0824 1.2780 -2.9861 1.7385 -0.7847 -2.1466 0.5268 -1.1571 1.2481 -0.7693 0.0620 0.1215 -0.5815 -0.7538 -0.9360 0.2606 -0.3282 3.3891 -1.8772 0.4962 0.7735 -1.4862 -2.9986 0.4086 1.3043 3.0502 0.2422 0.7282 1.7301
0.2005 0.1922 -3.4049 4.8948 -1.5520 0.4853 -3.7308 3.2729 -0.0245 -4.1055 0.9769 -1.5968 -2.6280 -1.2855 -0.8318 1.4372 1.1744 3.8783 3.2196 -3.0105 1.2613 -0.7923 -1.9689 -3.6034 -0.2608 2.5592 3.2277 -2.6556 2.4506 -0.4603 2.7394 -1.2485 -0.2666 0.3635 -1.4855 -1.6766 -0.5901 0.6728 1.0225 1.5945 0.1568 1.3712 -3.1423 1.0204 -0.5441 -2.0591 0.0159 -0.8934 1.5680 -0.6072 0.2075 0.3723 -0.6593 -0.5347 -0.7984 0.0268 -0.1040 3.5798 -1.9685 0.5665 -0.1500 -1.1796 -2.9145 0.4996 1.6300 3.0205 0.4435 0.8166 1.8149
-0.3791 -0.0275 -3.1261 2.6605 -3.0133 -0.0790 -1.2855 2.7783 -1.1400 -4.2410 0.8036 -1.1480 -2.9831 -0.9500 0.5534 -0.5360 2.6418 3.2742 4.6666 -1.9788 -0.7070 -0.8412 -2.3643 -3.1206 1.4246 1.7635 4.0616 -2.2891 1.9608 -1.7161 2.7896 -0.6603 -0.2435 0.3083 -1.4928 -1.3398 -0.6679 0.6897 1.3413 1.5621 0.4068 1.5463 -2.9466 1.1241 -0.6403 -2.2104 -0.1834 -0.3621 1.5512 -0.3626 0.3788 0.3196 -0.5941 -0.2605 -0.8625 -0.0159 0.2480 3.4221 -1.8882 -0.3138 -0.3664 -1.3977 -2.5281 0.5217 1.8030 3.2472 0.3824 0.9573 2.0743
-0.2874 0.3237 -3.1620 3.3452 -2.9849 1.2448 -3.5268 1.0898 -2.7925 -1.5884 2.5665 -1.1285 -3.1288 -0.3118 0.4528 -0.1342 2.2271 3.5288 4.7705 -1.5722 0.0137 -1.3130 -1.8151 -3.4011 1.8323 1.1629 4.0126 -3.7984 1.8322 -1.6141 2.4417 -1.5437 -0.3378 -0.0510 -1.4390 -1.5233 -0.5055 0.7162 1.3154 1.6164 -0.0730 1.4571 -2.6372 1.7464 -0.6428 -2.1933 0.3093 -0.4163 1.4224 -0.7548 0.2529 0.1744 -0.6434 -0.3856 -0.8419 0.1492 0.1785 3.5707 -1.9717 0.3340 -0.6283 -1.0631 -2.7106 0.8707 1.3559 3.2934 0.5900 0.6934 2.0307
-0.3362 -0.0135 -3.1411 4.6451 -1.9732 -0.7063 -1.2765 2.7894 -1.1073 -4.2227 0.8225 -1.1213 -2.9701 -0.9657 0.5435 1.5573 1.9055 3.8235 2.6367 -3.0856 -0.2356 -0.8268 -2.3456 -3.1032 -0.6336 2.4915 3.5514 -2.2503 1.9490 -1.7029 2.8206 -0.6896 -0.1659 0.3515 -1.4669 -1.3466 -0.7002 0.6913 1.3446 1.5573 0.4398 1.5550 -2.9186 1.1184 -0.6300 -2.1933 -0.1963 -0.3655 1.5657 -0.3464 0.3987 0.3434 -0.5852 -0.2551 -0.8472 -0.0254 0.2494 3.3140 -1.9766 -0.3252 -0.3364 -1.3771 -2.5272 0.3575 1.8692 3.2079 0.3628 0.9705 2.0591
-1.1718 -2.2584 -3.4797 4.6394 -1.0266 -0.0173 -3.9014 1.0088 -2.5296 -1.4673 2.4231 -1.5521 -3.1081 -0.0557 0.5535 0.1018 2.3366 3.4475 3.7651 -2.7331 1.3519 -0.8016 0.0732 -3.1496 1.7606 0.8961 4.0927 -3.7997 1.9755 -1.4954 2.4222 -1.6531 -0.2771 -0.0919 -1.4703 -1.5382 -0.4814 0.7276 1.2911 1.5860 -0.1559 1.4656 -2.4829 1.8362 -0.7552 -2.1674 0.3864 -0.4165 1.3989 -0.8225 0.2499 0.1714 -0.6668 -0.4137 -0.8086 0.1704 0.1452 3.6121 -1.8452 0.4097 -0.6824 -1.0666 -2.7175 0.9149 1.2697 3.3023 0.5919 0.6505 2.0326
1.4906 -0.1810 -3.1656 4.6335 -2.0669 0.1874 -4.4680 2.6462 0.5820 -2.3773 2.4808 -1.6449 -3.0494 -0.9042 -0.5993 1.3332 1.0518 3.7614 2.9350 -2.7877 1.6444 -0.0062 -1.8098 -4.0411 -0.3938 2.4455 3.2136 -3.2329 1.9545 0.5253 2.4583 -1.5081 -0.3123 0.0391 -1.5325 -1.7604 -0.6847 0.7443 0.8820 1.4530 0.0934 1.2372 -3.0046 1.4634 -0.8864 -2.2119 0.1716 -0.9896 1.3626 -0.7127 0.1025 0.1700 -0.6873 -0.6443 -0.9291 0.1056 -0.2398 3.3119 -2.1287 0.5846 0.4263 -1.2305 -3.0463 0.3929 1.5565 2.9358 0.3515 0.8355 1.6738
-0.5214 -2.1554 -3.9502 4.6954 -1.5602 0.4875 -3.5597 1.2224 1.1683 -2.3752 2.7873 -1.8787 -2.7536 -0.6391 -1.2331 -0.1678 2.5250 2.9635 3.1913 -2.8003 1.8081 0.0410 0.1332 -3.5626 0.7949 0.7923 4.1143 -2.9897 2.2424 0.3642 2.4695 -1.6547 -0.1401 0.2585 -1.4334 -1.8441 -0.5933 0.7869 0.8235 1.3133 -0.2014 1.4548 -2.7966 1.7283 -1.0412 -1.9206 0.5084 -1.2494 1.3666 -0.8344 0.2108 0.3074 -0.6243 -0.6914 -0.7472 0.2695 -0.3724 3.4297 -2.0242 0.7882 -0.0475 -1.0048 -3.1177 0.3451 1.2846 3.0976 0.2600 0.6517 1.8000
0.1621 0.1685 -3.3914 4.8930 -1.4663 0.4638 -3.6665 3.3114 -0.1377 -4.1345 0.9269 -1.5449 -2.6565 -1.3043 -0.7085 -0.4879 2.2897 3.2678 3.2635 -2.9651 1.2652 -0.8326 -1.9923 -3.5920 1.5808 1.4858 3.8209 -2.6205 2.4448 -0.5573 2.7287 -1.2526 -0.2957 0.3238 -1.5115 -1.6640 -0.5645 0.6771 1.0252 1.6028 0.1657 1.3440 -3.1350 1.0221 -0.5300 -2.0761 -0.0148 -0.8539 1.5644 -0.6040 0.1832 0.3596 -0.6672 -0.5358 -0.8007 0.0242 -0.0909 3.5932 -1.9273 0.5494 -0.1879 -1.2048 -2.9030 0.6250 1.5522 3.0707 0.4658 0.8418 1.8147
-0.6226 -0.0472 -3.2479 3.8788 -2.3774 1.2985 -1.0569 2.7754 -1.1831 -4.2611 1.1926 -1.1525 -3.1496 -0.7192 0.4814 -0.3103 2.2820 3.3472 4.6739 -0.7855 -0.2452 -1.3397 -2.3158 -3.3193 1.7509 1.3911 3.7867 -2.2143 2.1697 -1.7320 2.4353 -1.5502 -0.3166 -0.0686 -1.6554 -1.5271 -0.6433 0.6210 1.1963 1.5153 -0.0084 1.3525 -2.9297 1.3643 -0.6686 -2.3360 -0.0227 -0.4551 1.3669 -0.7620 0.1854 0.1112 -0.7734 -0.4463 -0.9538 -0.0273 0.0947 3.7037 -1.5093 0.2381 -0.7446 -1.4350 -2.7015 0.7417 1.4698 3.1121 0.4527 0.7228 1.9021

>  <OB_ATOM_TYPES> (1a4gA1)
C.3 N.pl3 O.3 O.3 O.3 O.co2 N.pl3 O.2 O.co2 C.3 N.pl3 N.am O.2 C.2 C.3 C.3 C.3 C.3 C.3 C.cat C.2 C.2 C.2

>  <ENSEMBLE_RMSD> (1a4gA1)
0.000 1.144 1.164 1.192 1.226 1.259 1.274 1.292 1.317 1.343 1.354 1.362 1.366 1.414 1.451 1.467 1.496 1.503 1.519 1.527 1.535 1.551 1.565 1.565 1.566 1.588 1.593 1.599 1.607 1.658 1.663 1.671 1.684 1.696 1.701 1.703 1.710 1.714 1.716 1.717 1.721 1.731 1.734 1.821 1.842 1.927

$$$$
