
 OpenBabel03071213D

 11 11  0  0  0  0  0  0  0  0999 V2000
   15.6060   56.4290   51.7640 C   0  0  0  0  0
   14.4030   55.7180   55.7330 O   0  0  0  0  0
   12.9720   57.7720   51.9890 O   0  0  0  0  0
   11.9520   57.2620   56.0600 O   0  0  0  0  0
   10.8700   56.5300   53.4920 O   0  0  0  0  0
   15.0190   57.0540   53.9120 O   0  0  0  0  0
   14.6030   56.1780   52.8770 C   0  0  0  0  0
   14.2200   56.9530   55.1730 C   0  0  0  0  0
   13.1220   56.4430   52.5260 C   0  0  0  0  0
   12.7840   57.2190   54.8070 C   0  0  0  0  0
   12.2730   56.2710   53.7800 C   0  0  0  0  0
  1  7  1  0  0  0
  2  8  1  0  0  0
  3  9  1  0  0  0
  4 10  1  0  0  0
  5 11  1  0  0  0
  6  7  1  0  0  0
  6  8  1  0  0  0
  7  9  1  0  0  0
  8 10  1  0  0  0
  9 11  1  0  0  0
 10 11  1  0  0  0
M  END
>  <MOLID> (1abfA2)
1abfA2

>  <SMILES_CANONICAL> (1abfA2)
O[C@H]1[C@@H](C)O[C@@H]([C@@H]([C@H]1O)O)O	

>  <FINGERPRINT> (1abfA2)
0000000000000000000000000000000000000001000000000000000000000000000000000000000000000000000000000000000000000001000000010000000010000000001010000000000001000000000000000000000000000000000000000000000000000000001010000000000000000000000000000000000000000000000000000000000000000000000000000000000100000000000000000010000000000000000000000000000000000000010000000000000010000000000000000000000000000000000000000000000000000010100000000000000000000000000000000000000000000000000000000000000000101010100100000000100000000000000000000000000000000000000000000000000000000000000000000001000101000000001000000000000000000000000000000000000000000001000000000000000000000000001000000000000000000000000000000000000000000101000000000000000000000000000010000000000000000000000100000000000000000000000001000000000000000000000000000000000000000000000000000000000000000000000000000010000000000000000000000010000000000000000000000000001000000000000000000000000000000000000000000000000010100000000000000000000000000000000000000000000000000000

>  <MACCS166> (1abfA2)
000000000000000000000000000000000000000000000000000011001000000000000001000000000000000010000000010000000001000000000001001000100010000010111010010011010000101100111000

>  <OB_MW> (1abfA2)
164.068

>  <OB_logP> (1abfA2)
-2.1938

>  <OB_PSA> (1abfA2)
90.15

>  <OB_MR> (1abfA2)
34.5742

>  <OB_ATOMIC_CHARGES> (1abfA2)
0.0349537444 -0.1869448974 -0.2176998506 -0.2147572464 -0.2173918078 -0.3263585718 0.1508703209 0.3022760637 0.2117700957 0.2434442418 0.2198379074

>  <MCT_HBD> (1abfA2)
4

>  <MCT_HBA> (1abfA2)
5

>  <ENSEMBLE_TOTAL> (1abfA2)
13

>  <ENSEMBLE_COORDS> (1abfA2)
2.1675 -0.2827 -2.0645 0.9645 -0.9937 1.9045 -0.4665 1.0603 -1.8395 -1.4865 0.5503 2.2315 -2.5685 -0.1817 -0.3365 1.5805 0.3423 0.0835 1.1645 -0.5337 -0.9515 0.7815 0.2413 1.3445 -0.3165 -0.2687 -1.3025 -0.6545 0.5073 0.9785 -1.1655 -0.4407 -0.0485
2.1004 -0.2347 -2.1020 0.9478 -0.7771 2.4333 -0.7812 0.8591 -2.2004 -1.4022 0.4051 2.1673 -2.4829 -0.0735 -0.3706 1.5523 -0.4438 0.2028 1.1643 0.2016 -1.0014 0.8708 0.1116 1.3287 -0.2677 -0.1622 -1.3604 -0.5799 0.4713 1.0214 -1.1216 -0.3573 -0.1187
1.7347 -1.4096 -1.1161 1.2235 -0.8864 1.7394 -0.6514 1.3523 -1.8001 -1.3498 0.0158 2.1574 -2.4757 -0.2393 -0.4323 1.5537 0.7226 0.0254 1.1877 -0.0020 -1.1438 0.8333 0.3666 1.2029 -0.3023 0.0241 -1.4289 -0.6671 0.4449 0.9931 -1.0866 -0.3890 -0.1969
1.8534 -1.1189 -1.3096 1.3368 -1.2885 1.5645 -0.8486 1.4060 -1.4881 -1.2076 1.2622 1.3465 -2.4598 -0.5811 -0.3638 1.4534 0.6912 0.2545 1.1438 0.1866 -1.0392 0.8192 0.0110 1.3350 -0.3437 0.0900 -1.3144 -0.6886 -0.0498 1.1874 -1.0584 -0.6088 -0.1729
2.0797 0.3943 -1.7273 1.3566 -0.1698 2.3845 -0.4991 1.2882 -1.5137 -1.2393 1.0701 1.5855 -2.6037 -0.2192 -0.3573 1.3734 -0.9337 0.1540 1.0465 -0.5621 -1.1808 0.8232 -0.0076 1.0820 -0.4019 -0.1197 -1.3683 -0.6865 -0.1575 1.1429 -1.2489 -0.5831 -0.2015
1.8118 -1.0866 -2.0093 1.2377 0.2836 2.4760 -0.4840 1.4965 -1.6909 -1.2701 -0.5308 2.0886 -2.5154 -0.0514 -0.5376 1.4090 -0.5117 0.2532 1.2055 -0.0590 -1.0845 0.7727 0.3906 1.1458 -0.2703 0.1179 -1.4203 -0.7426 0.2811 1.0518 -1.1544 -0.3304 -0.2730
1.8235 -0.6974 -1.4412 1.2507 -1.5191 1.3503 -0.6793 0.2091 -2.4293 -1.1271 1.1905 1.6677 -2.5020 -0.2420 -0.2956 1.4773 0.6927 0.5125 1.1238 0.5062 -0.8523 0.8096 -0.1739 1.4271 -0.3741 0.5405 -1.0867 -0.7008 -0.1131 1.2915 -1.1015 -0.3934 -0.1440
2.0291 -0.1687 -2.0050 1.3871 -0.5188 2.2481 -0.6498 0.2801 -2.4816 -1.5971 -0.2247 2.2058 -1.6290 1.3037 -0.2038 1.2824 0.5527 0.1416 1.0652 -0.4190 -0.8714 0.5938 0.2338 1.3466 -0.3936 -0.4628 -1.3073 -0.7255 -0.4843 1.1222 -1.3626 -0.0920 -0.1951
1.6288 0.8142 -1.9629 1.1530 -0.4930 2.5655 -0.7742 -0.3820 -2.5727 -1.3132 0.4797 2.1284 -1.3425 1.3617 -0.3810 1.3450 0.2116 0.3177 1.1098 -0.2401 -1.0142 0.6733 -0.6285 1.2424 -0.3436 -0.6352 -1.2525 -0.8342 -0.4375 1.1634 -1.3020 -0.0512 -0.2340
1.9148 -0.4108 -1.9028 1.2945 -0.2171 2.3780 -0.7331 0.0684 -2.4470 -0.9517 -1.4125 1.5536 -1.4820 1.6159 -0.3608 1.2528 0.6043 0.1505 0.9526 -0.4582 -0.7419 0.5622 0.4718 1.3846 -0.5135 -0.4542 -1.1527 -0.8763 -0.0226 1.2685 -1.4202 0.2150 -0.1299
1.6596 0.8828 -1.3119 1.0810 0.8858 1.6440 -0.7813 0.0024 -2.5392 -1.4876 -0.0414 2.2229 -1.2114 1.3898 -0.1625 1.4472 -0.9812 0.2238 1.0624 -0.4796 -1.0483 0.7162 -0.4444 1.3216 -0.4279 -0.5868 -1.3026 -0.7806 -0.5996 1.1319 -1.2775 -0.0280 -0.1795
1.5840 0.6768 -1.6251 1.2584 0.1785 2.5264 -0.9712 -0.3523 -2.4803 -1.1284 -1.1070 1.7255 -1.1563 1.6724 -0.5825 1.3446 -0.6981 0.3487 0.9388 -0.5420 -1.0048 0.7641 0.2858 1.2015 -0.5714 -0.5989 -1.1459 -0.7539 0.1677 1.2205 -1.3089 0.3171 -0.1839
1.9438 -0.5192 -1.9002 0.8791 1.3597 1.7320 -0.8209 0.2128 -2.3884 -1.0484 -1.6888 1.4082 -1.4031 1.5945 -0.0581 1.4137 -0.5319 0.4129 1.0179 0.0258 -0.8386 0.6427 -0.0180 1.4952 -0.4281 -0.3263 -1.1383 -0.8454 -0.2836 1.3165 -1.3513 0.1750 -0.0413

>  <OB_ATOM_TYPES> (1abfA2)
C.3 O.3 O.3 O.3 O.3 O.3 C.3 C.3 C.3 C.3 C.3

>  <ENSEMBLE_RMSD> (1abfA2)
0.000 0.415 0.569 0.669 0.673 0.720 0.746 0.784 1.008 1.082 1.208 1.238 1.346

$$$$
