
 OpenBabel03071213D

 25 24  0  0  0  0  0  0  0  0999 V2000
   56.3400   17.4060   10.8470 C   0  0  0  0  0
   56.8980   16.7670   13.1910 C   0  0  0  0  0
   66.7610   13.1090    8.7390 N   0  0  0  0  0
   63.0220   20.0780   12.8690 O   0  0  0  0  0
   63.4390   20.8720   16.1520 O   0  0  0  0  0
   66.3170   11.6480    7.0230 N   0  0  0  0  0
   62.6080   22.6620   15.3030 O   0  0  0  0  0
   60.0330   18.2570    9.7900 O   0  0  0  0  0
   61.4810   17.2240   13.8570 O   0  0  0  0  0
   62.6100   14.0030    8.6360 C   0  0  0  0  0
   62.1310   14.9740    9.6810 C   0  0  0  0  0
   64.0080   13.5900    9.0530 C   0  0  0  0  0
   60.7470   15.5230    9.3920 C   0  0  0  0  0
   58.1530   18.6340   12.1340 C   0  0  0  0  0
   61.6060   20.6190   14.6900 C   0  0  0  0  0
   64.5630   12.5990    8.1480 N   0  0  0  0  0
   60.2230   16.1450   10.5970 N   0  0  0  0  0
   60.4850   18.7760   12.5710 N   0  0  0  0  0
   56.8210   17.9020   12.1990 C   0  0  0  0  0
   62.3330   19.4640   13.9450 C   0  0  0  0  0
   59.4700   17.8650   12.0940 C   0  0  0  0  0
   65.8760   12.4640    7.9720 C   0  0  0  0  0
   62.6290   21.4420   15.4360 C   0  0  0  0  0
   59.9070   17.4400   10.7020 C   0  0  0  0  0
   61.4010   18.3780   13.4470 C   0  0  0  0  0
  1 19  1  0  0  0
  2 19  1  0  0  0
  3 22  1  0  0  0
  4 20  1  0  0  0
  5 23  1  0  0  0
  6 22  2  0  0  0
  7 23  2  0  0  0
  8 24  2  0  0  0
  9 25  2  0  0  0
 10 11  1  0  0  0
 10 12  1  0  0  0
 11 13  1  0  0  0
 12 16  1  0  0  0
 13 17  1  0  0  0
 14 19  1  0  0  0
 14 21  1  0  0  0
 15 20  1  0  0  0
 15 23  1  0  0  0
 16 22  1  0  0  0
 17 24  1  0  0  0
 18 21  1  0  0  0
 18 25  1  0  0  0
 20 25  1  0  0  0
 21 24  1  0  0  0
M  END
>  <MOLID> (1aecA1)
1aecA1

>  <SMILES_CANONICAL> (1aecA1)
CC(C[C@@H](C(=O)NCCCCNC(=N)N)NC(=O)[C@H](CC(=O)O)O)C	

>  <FINGERPRINT> (1aecA1)
0000000000000111000000000000000000000001000000000011000000000000000000000001000000000000000000000000010000000000000011000000000000000000000100000000000010000000000000000000000000000000000000000000000000000000000000000000000000100000000000000010000000001000000000000010000000000010000000000000000000000000000000001000001000000000001000000000000000000000010000000000001101110000000000000001011000000000100100000000001000000000000000000010000000000010100000000001100000000000000000000000000000011000000000000000100000010000000000000000000000000000000000000000000000000000000000000000000101000000000000000000000000000000000000000000001000000001000000000000000000000000000000000011000000000101000011100000000000000011000000000000000000000001000000100001000000000000000110000000000000000000000000000000000000000000000000000000000000000000010000000000000000000000000000000001000000000000000000000000000000001000000000000000000000010010000000000000010000000000000000011010000000001000010000000000000000000000100000000010101000000000

>  <MACCS166> (1aecA1)
000000000000000000000000100000000000000000100000000011000000000000000001010011100001000011110010000000010100011000101110001000011011000101111100011010111111111110010000

>  <OB_MW> (1aecA1)
359.217

>  <OB_logP> (1aecA1)
0.7051

>  <OB_PSA> (1aecA1)
177.63

>  <OB_MR> (1aecA1)
92.2558

>  <OB_ATOMIC_CHARGES> (1aecA1)
7.0038e-05 7.0038e-05 0.1354054781 -0.2125794701 -0.2455450435 0.1354054781 -0.2455450435 -0.2714875126 -0.2705685851 0.0487445767 0.0271287464 0.220470793 0.115315261 0.0310966349 0.1563607178 -0.0865359759 -0.2039888848 -0.1956390132 0.0022069618 0.2402682436 0.1727822502 0.5345695003 0.3679720912 0.2612153073 0.2728074123

>  <MCT_HBD> (1aecA1)
7

>  <MCT_HBA> (1aecA1)
10

>  <ENSEMBLE_TOTAL> (1aecA1)
50

>  <ENSEMBLE_COORDS> (1aecA1)
-4.2871 1.3280 -0.7383 -5.2647 0.8662 1.4702 2.6342 -5.5617 -5.0087 1.4665 4.2611 1.5729 0.6526 4.7410 4.7136 4.6803 -6.1326 -4.0046 -0.9731 3.1673 5.0072 0.0050 -0.9935 1.2668 0.2658 2.7321 -0.2493 1.7824 -3.2217 -2.3495 0.7352 -2.1394 -2.3381 2.5531 -3.1527 -3.6435 -0.2343 -2.3916 -1.2128 -2.9248 0.2479 1.0469 -0.5407 4.0718 2.8120 3.6872 -4.0491 -3.5599 -0.8956 -1.1626 -0.8659 -0.9070 1.5644 1.3764 -4.0029 1.2620 0.7432 0.5453 3.3137 2.0796 -1.5820 0.6577 0.4819 3.7039 -5.2850 -4.1806 -0.3306 3.9138 4.2846 -0.7257 -0.5787 0.3728 -0.0433 2.5418 0.9231
-3.7898 1.0812 -1.4365 -5.2704 1.2921 0.5183 4.1633 -3.9097 -5.1790 1.7303 4.0830 1.9533 0.4771 4.8754 4.8439 3.8705 -6.2367 -5.2835 -1.4030 3.5865 4.9502 -0.2946 -1.0002 1.6785 0.7865 2.4701 0.0699 1.2670 -3.9058 -2.0744 0.9844 -2.5645 -1.4388 2.2775 -3.7153 -3.1766 -0.3399 -2.5950 -0.7168 -2.9506 0.5300 0.8443 -0.4675 4.1924 2.8098 2.8879 -4.9815 -3.5370 -0.8451 -1.2547 -0.5655 -0.8871 1.6611 1.4574 -3.8490 1.4314 0.0308 0.6389 3.2691 2.3452 -1.4893 0.7517 0.5124 3.6391 -5.0942 -4.6976 -0.5372 4.1574 4.3044 -0.7965 -0.5821 0.6403 0.1975 2.4582 1.1471
-5.2160 0.9631 -0.0602 -3.9143 2.8006 0.9324 3.9125 -3.9261 -5.4206 1.7413 4.0434 1.8973 -1.8778 3.0529 4.2239 4.4055 -6.1778 -4.9752 -0.1633 4.3089 5.0545 -0.2270 -0.9981 1.4965 0.8363 2.4338 -0.0447 1.4536 -3.8792 -2.0295 1.0884 -2.5485 -1.4184 2.5214 -3.6586 -3.0699 -0.3128 -2.6041 -0.8620 -2.9377 0.5322 0.7876 -0.4956 4.1302 2.6706 3.0819 -4.9323 -3.4743 -0.8426 -1.2714 -0.7232 -0.8467 1.6105 1.3240 -3.8321 1.5403 0.1049 0.6373 3.2269 2.2321 -1.4932 0.7334 0.3754 3.8287 -5.0582 -4.6338 -0.7935 3.8567 4.1108 -0.7849 -0.5958 0.4798 0.2305 2.4171 1.0219
-5.1017 1.0840 -0.5162 -3.6353 2.9314 0.1705 4.8969 -3.9232 -4.8924 1.8611 3.8331 1.6699 0.5954 4.3656 4.7719 3.9441 -5.4349 -3.3628 -1.3441 3.1699 4.6697 -0.7073 -1.2246 1.7930 0.9538 2.0531 -0.0832 1.2690 -3.3502 -2.1892 -0.1905 -3.4824 -1.8335 1.5085 -3.8661 -3.5868 -0.4222 -2.9503 -0.4413 -2.9633 0.5900 0.6002 -0.2882 3.9317 2.6392 2.8255 -3.4383 -4.0128 -0.8714 -1.5819 -0.4919 -0.8085 1.4476 1.2880 -3.6643 1.5189 -0.3632 0.8005 3.0126 2.1278 -1.4694 0.5630 0.3525 3.8767 -4.3358 -4.0593 -0.4234 3.7557 4.1199 -0.9709 -0.8289 0.6611 0.3290 2.1596 0.9688
-5.0426 0.2910 -0.3405 -3.5685 1.5896 -1.8220 4.7236 -4.0488 -4.8846 2.1006 3.8868 1.9628 0.6551 4.5583 4.9467 3.3150 -5.8361 -4.2869 -1.3651 3.5258 4.7145 -0.8861 -0.9393 1.9241 1.1925 2.1696 0.1476 1.2166 -3.2916 -1.8694 -0.2730 -3.2851 -1.6302 1.4966 -3.8164 -3.2556 -0.5756 -2.7181 -0.2666 -2.8729 1.0865 0.5088 -0.1039 4.1654 2.7593 2.8992 -3.6135 -3.5507 -0.8823 -1.3141 -0.3638 -0.7170 1.7263 1.3778 -3.6063 0.5719 -0.7085 0.9450 3.1578 2.3380 -1.3755 0.8830 0.4046 3.6123 -4.5680 -4.2516 -0.3612 4.0242 4.2276 -1.0250 -0.5411 0.7715 0.4985 2.3358 1.1472
-5.1788 0.7480 0.0245 -3.9024 2.6833 0.8504 2.5504 -5.8759 -4.6593 1.6752 4.0889 1.9176 0.2436 4.5238 4.8867 4.8950 -5.7485 -4.5924 -1.7672 3.4659 4.6938 -0.1755 -1.1031 1.4850 0.8695 2.3763 0.0500 1.7638 -3.2348 -2.3551 0.3548 -2.6960 -2.3740 2.3413 -3.2516 -3.7499 -0.1382 -2.5505 -0.9554 -2.8770 0.4363 0.8551 -0.5500 4.1120 2.7134 3.5846 -3.9979 -3.7203 -0.7402 -1.2572 -0.7594 -0.7961 1.5251 1.4170 -3.8063 1.3684 0.1147 0.6109 3.2349 2.2949 -1.4400 0.6749 0.4410 3.7262 -5.2202 -4.3528 -0.7773 3.9724 4.1872 -0.7131 -0.6476 0.4797 0.2467 2.3732 1.1077
-4.3524 -0.3343 0.4475 -3.5066 -1.5181 2.4279 3.0936 -4.9416 -4.1045 -0.2396 5.2004 1.6758 0.8582 1.5585 3.9006 4.8020 -5.0657 -2.4967 1.6945 3.6152 4.4279 0.7051 0.3925 -0.7676 -1.4591 3.6502 -0.1248 1.1275 -2.3877 -2.4543 -0.2691 -2.1158 -2.9568 1.3320 -3.8672 -2.2460 -0.4406 -0.6314 -3.1830 -1.9060 -0.4647 0.8887 -0.3883 3.4210 3.2241 2.7321 -4.0949 -1.9490 -1.1571 -0.0259 -2.0877 -0.8512 1.7172 0.9980 -3.2786 -0.3423 1.5090 -0.0186 3.8086 1.8083 -1.5134 0.7807 0.1209 3.5880 -4.7256 -2.8336 0.8388 2.9126 3.9115 -0.5109 0.3756 -0.9337 -0.8805 3.0827 0.7976
-4.5809 -1.9277 0.3850 -4.2418 -0.3285 2.2190 2.8328 -5.5436 -2.1471 -1.2147 2.5352 3.8929 2.0676 3.8072 4.3088 4.9490 -4.7350 -2.7704 2.6428 3.8795 2.1018 0.4259 0.4219 -0.5505 -1.5549 3.4727 0.7294 1.3176 -1.7191 -3.1336 -0.1662 -1.4994 -3.2977 1.6162 -3.1890 -2.9792 -0.4564 -0.0173 -3.2391 -2.4531 -0.6973 0.5473 0.9243 2.3680 2.8567 3.0549 -3.3583 -2.9629 -1.2903 0.2970 -2.1052 -1.2912 1.2554 1.3540 -3.9462 -0.6123 0.7654 -0.4506 2.9927 2.7954 -1.8766 0.6536 0.1767 3.6625 -4.5572 -2.6413 1.9575 3.4363 3.0109 -0.7683 0.4474 -0.8338 -1.1599 2.6176 1.5175
-3.9667 0.7111 -1.6135 -5.4950 0.2709 0.2684 2.7297 -5.3514 -5.4968 -1.9575 4.5007 2.3896 1.0069 5.0779 4.4521 4.9462 -5.7143 -4.8169 2.0732 3.1085 4.0154 -0.2026 -0.4491 1.9012 0.1245 2.9924 0.2519 2.0297 -3.3618 -1.8658 0.7076 -2.6474 -1.7264 2.1905 -3.8142 -3.2937 0.5943 -2.0509 -0.3465 -3.0663 0.1204 0.6369 -0.3012 3.3160 3.6349 3.4786 -4.4564 -3.4651 -0.3089 -0.9307 -0.3714 -1.5636 1.8788 1.3918 -4.1545 0.8443 -0.1212 -0.6716 3.9257 2.3018 -1.7148 0.7820 0.4642 3.7703 -5.1912 -4.6027 1.0598 3.7905 4.0339 -0.6562 -0.2487 0.7788 -0.6523 2.8968 1.1991
-3.6044 0.2428 -1.7654 -5.0119 -0.4808 0.1105 4.5712 -4.8315 -3.9574 -2.0584 4.1317 2.7312 0.6450 5.1819 4.6891 2.9375 -3.6035 -5.1202 2.2863 3.8190 3.8831 0.5329 -0.1799 1.5380 -0.0771 3.2797 0.1743 0.7199 -4.0951 -1.9548 1.1048 -2.6350 -1.9579 0.9791 -4.6996 -3.3130 0.9702 -2.0707 -0.5666 -2.6122 -0.1566 0.4934 -0.0316 3.2122 3.6012 2.3602 -5.1350 -3.3896 0.0295 -0.9802 -0.5767 -1.3539 1.7428 1.3513 -3.8114 0.3518 -0.2736 -0.7196 3.8284 2.4056 -1.3789 0.7112 0.3341 3.2620 -4.4685 -4.2014 1.1042 4.0838 4.0418 -0.1701 -0.1815 0.5319 -0.6734 2.9326 1.1912
-3.6114 0.1430 -1.0460 -4.8396 0.2364 1.0908 2.7840 -6.3827 -4.3885 -1.2242 5.4588 1.6470 0.8165 2.5612 4.2900 4.8706 -5.4340 -4.9019 1.0700 4.8193 4.4994 0.7311 -0.3989 1.6774 -2.0418 3.4186 0.1677 1.6517 -2.8076 -2.7079 0.5541 -3.0972 -1.7144 1.7299 -3.9069 -3.7364 0.8202 -2.3328 -0.4398 -2.3787 0.1632 1.1238 -0.8741 3.9064 3.3938 3.1179 -4.0796 -4.1145 -0.0465 -1.1843 -0.3643 -0.6802 1.9110 1.2857 -3.5872 0.6667 0.3697 -0.6074 4.2168 1.9368 -1.0943 0.7337 0.5577 3.6392 -5.3039 -4.4898 0.4363 3.8491 4.1132 -0.0213 -0.3179 0.7117 -1.2149 3.1618 1.0387
-3.8997 -0.5483 -0.0699 -3.6408 -1.4770 2.1933 3.9260 -6.2343 -4.9995 -0.2434 5.4565 1.6640 -0.2361 2.5938 4.9056 2.1723 -6.7360 -3.5162 0.2315 4.8213 5.0715 1.1262 0.5251 0.0472 -1.0647 3.7087 -0.1715 1.6349 -2.7739 -3.1614 0.8912 -2.0443 -2.0722 2.2984 -4.0043 -2.5935 0.5938 -0.6327 -2.5192 -1.7318 -0.3354 1.1382 -1.1652 4.0003 3.2827 3.1627 -4.5700 -3.6085 -0.3705 -0.0184 -1.6422 -0.8522 1.9226 1.2932 -3.2364 -0.3515 1.2723 -0.2615 4.1014 2.0731 -1.2457 0.8794 0.3745 3.0311 -5.8881 -4.0067 -0.3104 3.8849 4.5044 -0.0163 0.4638 -0.3965 -0.7935 3.2564 0.9371
-4.6356 0.1870 -0.7832 -3.0445 1.7175 -1.8730 3.3175 -3.2605 -4.9092 2.0293 2.9649 3.4947 -1.9178 4.6889 3.6394 4.3329 -5.3773 -4.9595 -0.1900 5.3542 4.9735 -0.7230 -1.1018 1.9423 1.4970 1.9739 1.0299 1.0424 -3.9324 -2.1444 -0.2019 -3.1359 -1.8362 1.0866 -4.2785 -3.6138 -0.1503 -2.6404 -0.4109 -2.6602 0.9691 0.4644 0.2482 4.3836 2.8060 2.2687 -5.0797 -3.8680 -0.4726 -1.2367 -0.3630 -0.7005 1.6185 1.6988 -3.1817 0.5746 -0.8979 0.6782 2.9597 3.0788 -1.1529 0.8461 0.5626 3.3409 -4.6071 -4.6047 -0.6075 4.8581 3.9381 -0.7708 -0.5962 0.8251 0.5677 2.1506 1.8103
-4.6497 1.5571 -1.1047 -2.9634 3.0905 -0.1935 2.9502 -5.3179 -5.3102 1.9121 2.5267 3.2858 -0.1564 4.7117 4.8297 4.8879 -4.0303 -4.9864 -1.9424 4.7467 3.4112 -1.0764 -1.3422 1.9440 1.3219 1.6744 0.7660 1.3703 -3.4646 -1.8886 -0.0818 -3.6769 -1.5379 1.6361 -4.0130 -3.2660 -0.3715 -3.0766 -0.1861 -2.8192 0.6545 0.2677 0.2273 4.0607 2.6094 2.9830 -3.6552 -3.6592 -0.7203 -1.6857 -0.3200 -0.8555 1.3182 1.4950 -3.1893 1.7055 -0.7532 0.5663 2.6093 2.8620 -1.3175 0.5014 0.3956 3.6582 -4.3242 -4.6637 -0.7614 4.5249 3.6321 -1.0286 -0.9268 0.7898 0.4201 1.8320 1.5812
-3.8896 -0.6281 -0.9543 -4.3553 -1.6480 1.2306 4.1561 -6.1636 -4.1455 -2.3558 3.7240 3.3361 0.7189 5.2924 4.5912 2.6211 -5.6578 -2.4373 2.2091 4.0366 3.4058 0.9181 0.5575 0.7319 -0.7639 3.5699 0.3979 1.7633 -2.3949 -3.5782 0.6940 -2.0715 -2.5618 1.4438 -3.7152 -4.2398 1.0896 -0.8599 -1.7530 -2.2058 -0.5062 0.8831 -0.0471 3.2450 3.7312 2.6776 -4.4342 -4.4828 -0.0837 -0.2217 -1.2070 -1.4034 1.6789 1.5791 -3.6771 -0.4917 0.5345 -1.0720 3.7709 2.7534 -1.4856 0.7605 0.4589 3.1053 -5.4338 -3.6261 1.0881 4.2144 3.8586 -0.0803 0.3662 0.0439 -1.0654 3.0102 1.4496
-4.7467 1.1738 -0.8433 -3.3808 2.9480 0.1752 2.3423 -3.6617 -5.2325 2.0162 3.7915 2.0098 -1.9318 3.2358 3.9127 4.6507 -3.9992 -4.9576 -0.2655 4.4590 4.8808 -0.4410 -1.1142 1.9066 1.2811 2.0053 0.1681 1.4936 -3.8101 -1.6699 0.0016 -3.6418 -1.5251 1.8050 -4.7993 -2.7652 -0.3005 -3.0292 -0.1806 -2.7339 0.5819 0.4575 -0.2806 4.0909 2.4927 3.1575 -4.5573 -3.2272 -0.6886 -1.6506 -0.3342 -0.6650 1.4922 1.3114 -3.3403 1.5922 -0.4882 0.8260 3.0783 2.2871 -1.2220 0.5668 0.3500 3.4325 -4.0793 -4.4958 -0.7905 3.9646 3.8942 -0.7397 -0.8059 0.7562 0.5203 2.1685 1.1173
-3.6060 1.0274 -1.2134 -4.9617 0.7104 0.8151 4.4923 -5.8990 -5.3184 1.2522 4.8683 1.8987 -0.5709 4.4883 5.1134 2.1620 -5.8888 -5.6261 -2.1532 3.0653 4.2902 0.3414 -0.5215 1.9209 0.8156 2.9245 0.1429 2.0334 -3.6010 -2.0021 0.8056 -2.7594 -1.7489 2.0579 -3.9472 -3.4719 0.8051 -2.1931 -0.3532 -2.5315 0.3264 0.9193 -0.8950 4.4714 2.7896 3.1813 -4.8144 -3.7605 0.0021 -0.9982 -0.3244 -0.7805 1.9247 1.4950 -3.6206 1.1618 0.2897 0.3997 3.8269 2.3428 -1.1468 0.8531 0.5994 3.2145 -5.5342 -4.9435 -1.2875 3.9106 4.1202 -0.1810 -0.2790 0.8379 0.1717 2.8767 1.1874
-3.6304 -0.3315 -0.4217 -4.2084 -0.8144 1.9225 1.8215 -5.9924 -2.9520 0.5179 5.2935 1.5341 -1.7977 3.3534 4.9077 3.4597 -6.8002 -4.4296 0.0633 4.6744 4.9625 1.2908 0.0072 1.0674 -0.0169 3.3442 -0.2163 2.0011 -2.5748 -3.4598 0.7905 -2.0828 -2.7092 1.6022 -3.6451 -4.4466 1.2295 -1.5038 -1.3870 -1.8875 -0.2098 1.3577 -1.1616 4.3550 2.8978 2.7071 -4.5735 -4.5864 0.1908 -0.6549 -0.8695 -0.6536 1.8821 1.4663 -3.3405 0.0252 1.0166 0.0825 4.0660 2.0881 -0.9715 0.7511 0.6278 2.6792 -5.8368 -4.0229 -0.8629 4.1619 4.3523 0.3098 0.0126 0.3315 -0.2147 3.0933 0.9686
-3.3226 0.6914 -1.5272 -4.8664 0.8779 0.3829 1.9103 -5.9453 -5.4967 1.3358 4.7393 2.0238 -0.0770 4.6296 5.0120 4.2088 -5.5207 -5.7141 -2.2153 3.9000 4.7262 0.2416 -0.6487 2.0458 0.9001 2.8356 0.2210 1.9271 -3.5902 -1.9985 0.5966 -3.1622 -1.4273 1.7133 -4.2437 -3.3396 0.8238 -2.3566 -0.1724 -2.5040 0.3348 0.7944 -0.8679 4.4238 2.7979 2.9958 -4.6091 -3.9093 0.0642 -1.1345 -0.2193 -0.7453 1.8451 1.5180 -3.4517 1.1163 -0.0841 0.4213 3.7295 2.4135 -1.0708 0.7804 0.5990 3.0847 -5.3556 -5.0723 -1.1438 4.2624 4.2626 -0.1784 -0.3935 0.9213 0.2198 2.7938 1.2425
-3.6973 0.4499 -0.8126 -4.4570 -0.3416 1.3849 2.7633 -4.5913 -5.5977 0.1275 5.5044 1.6192 -1.2691 2.6512 4.6734 3.8111 -6.6375 -5.1191 -0.4462 4.7079 5.2233 1.1317 0.0498 1.4149 0.0350 3.5289 -0.1644 1.8864 -3.7595 -2.1157 1.0063 -2.5365 -2.0260 1.3609 -4.6559 -3.2132 1.4327 -1.6416 -0.8889 -2.0530 -0.0003 1.0058 -1.3318 4.2967 3.0149 2.3617 -5.6499 -3.5469 0.4448 -0.6080 -0.7000 -0.7338 2.0109 1.4054 -3.4350 0.5124 0.6729 -0.0947 4.2088 2.1487 -0.9448 0.9020 0.4992 3.0022 -5.6731 -4.7739 -0.9520 3.9427 4.4168 0.3268 0.0831 0.4891 -0.2757 3.2463 0.9901
-3.1884 -1.3984 0.5528 -1.6221 -2.4426 2.1428 3.4854 -4.4594 -2.7597 1.5324 3.6553 1.8763 0.3842 4.9094 4.7650 2.4630 -6.5752 -2.8221 -1.6266 3.8869 5.1003 0.9473 1.2560 -1.4101 -1.3375 3.4993 0.3392 0.1294 -2.5089 -3.3640 0.6992 -1.1298 -3.5906 0.9763 -3.2676 -2.3700 -0.3996 -0.0908 -3.5976 -0.7769 -0.7791 0.5376 -0.0428 2.9523 3.5379 1.1561 -4.6176 -2.8678 -0.9087 0.1607 -2.2709 -0.2689 1.5491 1.0017 -1.9554 -1.1754 1.3945 0.1566 3.6086 2.1916 -0.8921 0.6527 0.0525 2.3710 -5.2737 -2.7917 -0.5468 3.9529 4.5322 -0.1587 0.7445 -1.2678 -0.5764 2.8907 1.0876
-3.3216 1.0578 -1.1163 -4.6315 0.3392 0.8373 3.2481 -4.5980 -5.8415 1.5359 4.5622 2.6913 -1.1331 4.3003 5.1815 3.4719 -6.8528 -5.2247 -2.8568 3.7353 3.7972 0.9981 -0.3270 1.6798 0.9360 3.1629 0.4904 1.8246 -3.5716 -2.4083 0.6336 -2.8464 -1.8310 1.4833 -4.1108 -3.7755 1.0599 -2.0869 -0.5982 -2.1755 0.1964 0.9235 -0.8217 4.6414 2.8769 2.1243 -5.4003 -3.9494 0.2408 -0.9152 -0.4353 -0.5813 1.8676 1.6833 -3.3453 0.9914 0.3915 0.3877 3.7388 2.7699 -0.8465 0.8790 0.6657 2.9638 -5.6686 -5.0171 -1.7240 4.1599 3.9705 0.2349 -0.1756 0.7312 0.2947 2.9208 1.5074
-4.2473 -0.1436 -0.6005 -3.6997 2.0471 0.3741 3.6814 -5.7740 -4.0291 1.4861 4.3793 2.7879 -0.8780 4.8323 5.1002 3.2718 -5.3215 -6.2970 -2.7465 3.9087 4.1747 0.9092 -0.5006 1.7336 1.0761 3.0052 0.5268 1.3269 -3.3891 -2.6766 0.5951 -3.3314 -1.3578 1.2041 -4.7586 -3.2998 1.2188 -2.2702 -0.4827 -2.1439 0.1490 0.6560 -0.8788 4.5125 2.7718 1.7029 -4.6883 -4.6604 0.3940 -1.0889 -0.4494 -0.5736 1.7392 1.5576 -3.1255 0.8139 -0.2808 0.3164 3.5850 2.7484 -0.7642 0.7596 0.5119 2.8959 -5.2733 -5.0477 -1.6156 4.3587 4.0672 0.2679 -0.3322 0.7007 0.3263 2.7812 1.4709
-3.2409 -0.5037 -1.5033 -4.2791 -1.5794 0.4407 2.5091 -6.9414 -4.2949 -2.6002 3.6988 3.2099 0.2780 5.5433 4.5768 3.7000 -5.0107 -4.9102 1.9151 4.3701 3.5076 0.9801 0.4547 1.4745 -0.8480 3.5923 0.3645 1.5190 -3.0623 -2.3216 1.9501 -1.6232 -2.1743 1.5541 -3.4455 -3.7810 1.7625 -1.1652 -0.7490 -2.1043 -0.4852 0.7228 -0.2872 3.4179 3.7431 1.5494 -4.8896 -3.8888 0.5414 -0.4086 -0.6299 -1.4160 1.6909 1.5674 -3.4263 -0.4156 -0.0069 -1.2941 3.8313 2.6956 -1.2261 0.7305 0.4977 2.6442 -5.5708 -4.3915 0.7615 4.4761 3.8968 0.2139 0.2569 0.5361 -1.1561 3.0386 1.4177
-2.2620 -2.6401 0.7865 -3.2333 -0.8279 2.1415 2.1894 -5.6929 -4.7479 -1.0708 5.4222 1.8881 0.5115 2.4845 4.6341 3.5548 -6.6450 -3.0911 0.3875 4.7300 5.0222 1.1788 1.3749 -0.4914 -1.7953 3.6304 0.0543 1.6248 -2.4776 -2.8568 0.5879 -1.5330 -3.4124 1.1137 -3.8955 -2.9321 0.7963 -0.1519 -2.8433 -1.0681 -0.4945 0.9969 -1.1405 3.6725 3.4787 2.1948 -4.7952 -2.5824 -0.2248 0.1599 -1.8753 -0.8193 1.8870 1.2287 -2.4277 -1.1448 0.9050 -0.6288 4.0980 2.1186 -1.0579 0.8323 0.2659 2.6745 -5.7538 -3.4567 -0.0067 3.7233 4.4540 0.0992 0.8325 -0.7113 -1.1782 3.2045 1.0265
-3.8388 -1.5689 0.7469 -4.0700 0.7834 1.4125 3.4920 -6.7385 -5.4926 -0.2155 5.4829 1.8629 -0.4088 5.1382 5.1084 2.8018 -6.8132 -3.2457 -0.8600 2.9152 5.3417 1.3548 0.4463 0.7671 -0.3724 3.6783 -0.0718 2.0186 -2.8219 -3.3395 0.9051 -2.1633 -2.5592 1.5824 -4.2216 -3.7086 1.4206 -1.0540 -1.6745 -1.8216 -0.1973 1.0846 -1.4326 4.0531 3.2920 2.5849 -4.8376 -4.5539 0.3098 -0.2782 -1.1699 -0.7925 1.9581 1.4166 -3.2512 -0.1863 0.5940 -0.2936 4.1356 2.2978 -1.0042 0.9055 0.4417 2.9321 -6.1647 -4.3685 -0.8712 3.9398 4.6768 0.3529 0.3414 0.0650 -0.5226 3.2676 1.0764
-3.4257 0.7442 -0.8803 -4.3647 -0.2515 1.1596 2.8110 -4.6208 -5.8053 1.3342 4.7651 2.6288 -2.6761 3.4022 3.8473 3.5090 -6.8078 -5.3107 -1.5035 4.8094 5.2096 1.4116 0.0530 1.3452 0.6796 3.4200 0.3905 1.7171 -3.8530 -2.2719 0.9609 -2.5602 -2.0924 1.2338 -4.5160 -3.5405 1.3397 -1.8756 -0.8030 -1.9290 0.0237 0.9850 -1.0203 4.7194 2.8485 2.0711 -5.6603 -3.8400 0.4263 -0.7827 -0.5776 -0.5285 1.8921 1.6568 -3.2643 0.6293 0.6166 0.2317 3.8820 2.7187 -0.7477 0.9048 0.6215 2.8182 -5.7442 -5.0024 -1.7284 4.3343 4.1070 0.4836 0.0211 0.5428 0.1605 3.0717 1.4462
-2.7045 0.7569 -2.0446 -4.5458 1.2131 -0.4759 2.4824 -5.7072 -5.2572 1.7473 4.2486 2.3758 -0.4251 4.8859 4.8652 2.6135 -3.4751 -5.9770 -2.3323 3.8397 4.1796 -0.1142 -0.8635 2.2021 1.4382 2.3147 0.5857 1.9037 -4.1683 -1.3338 0.5339 -3.5948 -1.0565 1.9266 -4.8980 -2.6541 0.6102 -2.7528 0.1931 -2.3979 0.3991 0.3994 -0.5993 4.3527 2.5836 2.2927 -3.9647 -3.7009 0.0699 -1.4405 -0.0414 -0.6294 1.7087 1.4392 -3.0487 1.2542 -0.6614 0.6025 3.4328 2.5553 -0.9080 0.6536 0.4922 2.4547 -4.3476 -5.0195 -1.2281 4.3057 3.9411 -0.2720 -0.6126 1.0113 0.5296 2.4596 1.3991
-3.4477 0.5053 -1.0605 -4.5551 0.0067 1.0838 1.3795 -5.5718 -5.7403 0.6217 5.1918 1.9743 -1.9543 3.1994 4.7853 3.1035 -7.0863 -5.2497 -1.1975 5.3454 4.9778 0.9045 -0.3985 1.8123 0.7915 3.1265 0.3061 2.4057 -3.4348 -2.2801 1.8056 -2.0625 -2.0829 2.0960 -3.9133 -3.6761 1.5231 -1.8291 -0.6191 -2.0972 -0.0169 0.9630 -1.4059 4.3108 2.8048 2.8467 -5.1196 -3.9689 0.6164 -0.7200 -0.4719 -0.6497 1.8430 1.5873 -3.3490 0.6454 0.4391 0.0228 3.9892 2.4240 -0.8497 0.7769 0.6323 2.4721 -5.9725 -4.9959 -1.4917 4.3748 4.2965 0.3220 -0.1663 0.7580 0.0864 2.9763 1.3008
-4.1327 0.3294 -1.2268 -3.4458 2.3636 -0.0461 3.2409 -4.2682 -5.8092 1.3734 4.3196 2.8502 -2.7583 3.5830 3.9553 2.1587 -6.3479 -5.9448 -1.3763 5.1329 4.9009 0.0407 -0.8980 2.1763 1.4117 2.4855 0.9322 1.4529 -3.7177 -2.0389 2.1295 -2.8504 -1.0034 2.3894 -3.9033 -3.2072 1.1837 -2.5430 0.1317 -2.2215 0.2428 0.3186 -0.9807 4.3555 2.6454 1.9454 -5.0260 -4.0083 0.5919 -1.2397 -0.0500 -0.6663 1.6568 1.5248 -2.9435 1.0971 -0.6991 0.2391 3.4731 2.8000 -0.7694 0.6437 0.4915 2.4448 -5.2636 -5.2774 -1.6929 4.4191 3.9610 -0.0157 -0.5705 0.9943 0.4010 2.5261 1.6288
-2.5937 -2.3381 1.4966 -3.2308 -0.0504 2.1369 3.7179 -6.0040 -3.2237 -1.4959 5.3574 1.8392 -0.1727 4.7900 4.8747 1.9778 -7.1155 -4.3408 0.1597 2.5336 4.8270 1.4386 1.0762 -0.2275 -1.6821 3.5856 -0.1428 1.4715 -2.4804 -3.3662 1.8069 -1.3461 -2.4292 2.1621 -3.7396 -2.9044 1.0427 -0.1029 -2.8218 -1.0613 -0.4661 1.0191 -1.4685 3.5516 3.3639 1.7528 -4.8448 -3.7495 0.0231 0.2040 -1.8495 -0.7225 1.9187 1.1493 -2.5105 -0.8838 1.1037 -0.8851 4.1036 2.0797 -0.9229 0.8212 0.2343 2.4558 -6.0370 -3.7829 -0.4043 3.5364 4.4161 0.3235 0.7346 -0.6099 -1.1820 3.1959 0.9082
-4.0874 -0.6447 -0.8477 -3.3648 1.6848 -1.1534 1.0971 -3.7542 -4.9012 0.3379 5.2599 1.7252 -0.6555 5.2036 4.7812 3.3274 -4.2053 -5.4840 -0.9906 3.0065 5.2875 0.7450 -0.4645 1.8386 0.4607 3.2998 -0.0532 1.7115 -4.5146 -1.4785 0.7987 -3.3133 -1.4215 1.3052 -5.3835 -2.6471 1.0729 -2.4709 -0.2003 -2.2085 0.2256 0.4864 0.4034 3.6091 3.4120 2.3274 -5.3288 -3.6744 0.3794 -1.2105 -0.3250 -0.6148 1.8087 1.3532 -2.8948 0.2804 -0.8593 -0.2717 4.0451 2.1280 -0.7882 0.7413 0.3938 2.2958 -4.4130 -4.7121 -0.4991 3.8727 4.5798 0.1838 -0.3659 0.7513 -0.0710 3.0318 1.0207
-2.1667 0.9264 -2.1181 -4.2718 1.2600 -0.9020 2.0688 -5.7321 -6.1649 1.7628 3.7636 3.3786 -1.1765 5.1895 4.6986 3.3481 -3.8671 -5.5285 -2.6864 4.2825 3.2489 -0.3020 -0.9918 2.3064 1.6707 1.8588 1.5511 1.0174 -3.8273 -1.9786 1.5697 -3.1565 -0.7438 2.1684 -4.1207 -2.9095 0.4634 -2.7897 0.2122 -2.2947 0.4965 0.3357 -0.3683 4.4436 2.6208 1.6704 -4.7687 -4.1052 0.1349 -1.3961 0.0637 -0.6393 1.6619 1.7009 -2.7689 1.3654 -0.8045 0.4657 3.2723 3.0901 -0.8236 0.6916 0.6418 2.4206 -4.7444 -5.2675 -1.5426 4.6053 3.5327 -0.3102 -0.6422 1.1305 0.5899 2.2194 2.0107
-3.0676 -0.8990 -0.5130 -3.2351 -1.6379 1.8259 1.1287 -5.9311 -4.8205 -2.9100 4.6094 2.7196 1.2665 3.5161 3.6031 2.8097 -7.2083 -3.7911 0.3249 5.4392 4.3940 1.6247 0.8360 0.7600 -2.9720 2.6933 0.9021 2.7067 -2.5392 -2.9662 1.5788 -1.5489 -2.7985 2.3117 -3.5642 -4.0031 1.9281 -0.5078 -1.7622 -1.2928 -0.3022 1.1404 -1.0648 3.5721 3.7472 2.8429 -4.8606 -3.6307 0.7197 0.0836 -1.2398 -0.7727 2.0818 1.2829 -2.7714 -0.5233 0.9197 -1.6545 4.0188 2.4276 -0.7720 0.9217 0.4148 2.2849 -6.0470 -4.0749 0.2227 4.3029 3.9581 0.6615 0.6341 0.0269 -1.8987 2.8605 1.4778
-3.3782 -1.8701 1.4264 -3.6453 0.5648 1.6126 0.7341 -5.5496 -3.1138 0.0753 5.3699 1.5384 -1.4638 2.5229 4.5983 2.7952 -6.6738 -3.0654 -0.4504 4.5114 5.0743 1.6316 0.3650 0.6452 -0.3141 3.4789 -0.3116 2.2474 -2.3864 -3.8248 1.1618 -2.0362 -2.8366 1.7888 -3.5309 -4.6966 1.6534 -0.9709 -1.8900 -1.3972 -0.4174 1.2375 -1.4135 4.1213 2.8919 2.5425 -4.7223 -4.3567 0.5306 -0.3000 -1.2875 -0.5474 1.8349 1.3100 -2.8721 -0.5379 0.9289 -0.1708 4.0678 2.0297 -0.7576 0.7009 0.4398 2.0555 -5.6867 -3.4908 -1.0377 3.7732 4.2983 0.6075 0.2427 -0.0200 -0.3755 3.1288 0.8626
-3.8891 -1.2591 0.4726 -2.5341 -2.5130 2.0984 3.6248 -3.1269 -1.3907 -0.0070 4.7363 1.7183 1.7376 0.9576 3.1652 2.3262 -3.2039 0.5652 2.5891 2.9966 3.7381 0.4564 0.5990 -1.5915 -1.4855 3.3253 0.0053 0.8521 -1.8713 -3.6341 -0.6527 -1.8664 -3.7770 1.3218 -3.1460 -2.9732 -1.1653 -0.4474 -3.6944 -1.4193 -0.9554 0.5516 0.2948 2.7910 3.0146 1.2904 -2.9770 -1.5333 -1.6046 -0.1436 -2.3557 -0.6119 1.3187 0.7652 -2.6699 -1.2028 1.3613 0.3158 3.3612 1.6129 -1.4069 0.4334 -0.0563 2.4100 -3.1239 -0.7348 1.6670 2.2981 3.3456 -0.7242 0.3244 -1.3986 -0.7154 2.6951 0.7251
-3.9775 -0.9357 0.6562 -2.7436 -2.1001 2.4351 1.1467 -3.0576 -0.1767 0.3549 4.7278 1.3545 1.4484 0.9872 3.4146 3.4730 -2.7516 -0.0678 2.4200 2.9942 3.9008 0.5533 0.2274 -1.5810 -1.1038 3.2722 -0.3540 0.7789 -2.1961 -3.7472 -0.7293 -2.1300 -3.7090 1.2557 -3.3753 -2.9341 -1.1811 -0.6894 -3.6566 -1.4930 -0.8956 0.6916 0.2384 2.9186 2.8754 2.4046 -2.9662 -2.1516 -1.5751 -0.3303 -2.3175 -0.4635 1.2916 0.6665 -2.7485 -0.8908 1.5322 0.5109 3.3249 1.4428 -1.3300 0.4037 -0.0690 2.3873 -2.9319 -0.7690 1.4926 2.3404 3.4482 -0.6516 0.1009 -1.3842 -0.4674 2.6617 0.4998
-3.7154 0.4920 -1.7009 -2.8559 2.5643 -0.7225 3.6062 -4.6996 -4.8628 1.6467 4.0862 2.9903 -2.7361 3.5423 3.1968 1.9050 -3.9922 -6.3194 -1.6213 4.8549 4.6933 -0.1465 -0.9430 2.3199 1.6939 2.1764 1.1512 0.8784 -4.2069 -1.6848 1.6572 -3.4971 -0.6022 1.8399 -4.7447 -2.7180 0.7307 -2.9351 0.4498 -2.0654 0.3641 0.1129 -0.6531 4.3691 2.5300 1.4673 -4.2331 -4.0214 0.4215 -1.5548 0.1580 -0.5236 1.6177 1.4948 -2.4904 1.1495 -1.1083 0.4365 3.3650 2.8372 -0.6108 0.5773 0.4854 2.3076 -4.3062 -5.1181 -1.6901 4.2984 3.6080 -0.1004 -0.7064 1.1159 0.6184 2.3619 1.7149
-3.9284 -0.3078 -1.0361 -3.7047 1.7470 0.2761 1.5823 -5.1210 -6.3039 -0.3792 2.3203 4.4574 -1.5836 6.3949 3.2551 2.6917 -7.0963 -5.6840 -1.1502 5.4565 5.2875 1.0347 -0.5635 1.7351 0.9276 3.0382 1.3889 2.4088 -3.6265 -2.4242 1.6392 -2.3539 -2.1660 2.3444 -3.9101 -3.9084 1.6727 -1.9274 -0.7192 -1.9519 -0.0117 0.3867 -1.6049 4.0566 3.3628 2.4574 -5.3353 -4.1399 0.8189 -0.7692 -0.5585 -0.7295 1.4831 1.8273 -2.9396 0.7053 -0.5073 -0.3186 3.2662 3.4152 -0.6536 0.7497 0.5750 2.2790 -5.8925 -5.3945 -1.4110 5.3491 4.0985 0.4810 -0.2614 0.6815 0.0175 2.6098 2.0950
-1.6155 -2.7710 1.3145 -1.7001 -0.8904 2.9067 2.2062 -5.0354 -1.4520 -1.9790 5.0034 1.8626 0.6864 2.3722 4.1367 1.4636 -6.7278 -2.9010 0.2193 4.5287 4.7218 1.2282 1.4687 -0.8802 -2.2949 3.1228 -0.0039 1.2310 -2.2180 -3.6342 1.6938 -0.8546 -3.1835 2.3609 -3.2136 -3.5362 0.5842 0.1561 -3.3644 -0.4572 -0.6511 0.7946 -1.3178 3.2779 3.3404 1.8147 -4.5454 -3.7100 -0.2444 0.2366 -2.1867 -0.7095 1.7502 0.9826 -1.6708 -1.2690 1.4462 -1.1209 3.8834 1.9671 -0.8298 0.6308 0.0780 1.8237 -5.4896 -2.6984 -0.0710 3.4947 4.1391 0.1783 0.8499 -1.0235 -1.4795 2.8906 0.8834
-3.0786 -0.9285 -0.0584 -2.6239 -1.9167 2.1460 0.8746 -6.1210 -4.8807 -0.4441 5.4993 1.7092 -0.6991 4.9974 5.0319 2.4487 -7.3623 -3.6587 -1.3196 2.8041 5.1238 1.7988 0.9813 0.3919 -0.9500 3.6498 -0.1341 2.0462 -2.7121 -2.7121 1.5059 -1.3713 -3.1498 1.6735 -3.7637 -3.7251 1.8584 -0.3296 -2.1187 -0.9278 -0.4697 1.1133 -1.7107 4.0859 3.1194 2.2771 -5.0297 -3.3547 0.6761 0.1704 -1.4673 -0.5590 1.9261 1.3703 -2.4111 -0.7013 1.2764 -0.5228 4.1676 2.1858 -0.6166 0.8394 0.4166 1.8940 -6.2183 -3.9540 -1.2247 3.8599 4.5168 0.7574 0.6938 -0.1910 -0.7226 3.2490 1.0035
-3.5023 -1.2574 -0.3554 -3.5241 0.8438 0.9067 2.4475 -6.2955 -4.2672 0.6076 2.8613 4.0632 -1.5932 5.2267 5.0518 0.3006 -6.4627 -5.2065 -2.7101 5.6192 3.1034 1.7359 -0.1804 1.3957 0.7412 3.3389 0.8487 2.2638 -3.1455 -2.7587 2.4259 -1.6523 -2.6133 2.2548 -3.5169 -4.2229 2.4138 -1.2723 -1.1528 -1.4074 -0.4066 0.6115 -1.6151 3.4982 3.4572 1.1179 -4.3803 -4.4759 1.3056 -0.3917 -0.8710 -0.3744 1.4931 1.6921 -2.7125 -0.0088 -0.0404 -0.1589 3.4849 3.0548 -0.3491 0.6733 0.4929 1.2567 -5.7398 -4.6909 -2.0299 4.8934 3.8133 1.0055 -0.0087 0.4236 0.1003 2.7862 1.7401
-2.9632 -0.0582 -2.2355 -0.8333 1.1129 -2.5731 1.5671 -2.0893 -4.8811 0.4431 5.0703 1.6230 -0.7184 2.7394 5.0094 2.4662 -4.2620 -4.8900 -0.4939 5.0094 4.9534 -0.4909 -1.0112 2.3431 0.6589 3.0878 -0.1157 0.1742 -4.6324 -1.2551 1.1348 -4.0682 -0.2350 0.8768 -4.8313 -2.5741 0.3760 -3.2308 0.7653 -1.6130 0.5355 -0.2744 -1.0325 3.7833 2.9393 0.7453 -3.6298 -3.3753 0.3689 -1.8473 0.3593 -0.1382 1.5200 1.3817 -1.5521 0.0944 -1.7203 0.2672 3.7707 2.1642 -0.2691 0.4457 0.4177 1.6416 -3.3805 -4.3992 -0.7139 3.9456 4.3938 -0.1628 -0.8624 1.1698 0.2611 2.7884 1.0086
-1.9661 -0.5633 -2.3616 -1.2723 1.7215 -2.9246 0.9631 -4.2460 -5.3688 1.4579 3.0850 4.2562 -2.2238 4.6459 2.6180 2.3640 -2.3657 -5.2251 -1.0797 5.5449 4.3753 -1.3366 -0.9653 1.9704 1.6820 1.1280 2.4774 0.1324 -4.2704 -1.7645 0.6623 -3.9621 -0.3838 1.2491 -4.7598 -2.6552 -0.3353 -3.1198 0.3738 -1.4014 1.0251 -0.5621 0.0748 4.2200 2.7140 1.8745 -3.6225 -3.3010 -0.0390 -1.7189 0.2035 -0.4011 1.5596 1.5645 -1.0576 0.5766 -1.9646 0.3346 2.9027 3.4122 -0.3366 0.6368 0.4454 1.7613 -3.3739 -4.6563 -1.1097 4.8770 3.3527 -0.6483 -0.7496 0.9771 0.6514 1.7943 2.4272
-0.6359 0.9988 -2.5565 -3.0181 1.3106 -2.0577 1.5410 -2.3214 -4.5206 -0.8581 2.0450 4.4571 -0.9659 5.3542 4.6874 0.7464 -3.7216 -6.2327 -0.6074 6.1233 2.5729 -0.3194 -1.4011 2.1910 1.4961 1.7525 2.2395 1.3046 -4.6145 -1.7336 1.8404 -3.6817 -0.6747 2.1779 -4.5541 -2.9648 0.7161 -3.2122 0.2179 -1.5878 0.2457 -0.3796 -1.2621 3.8278 2.9154 1.3266 -4.6194 -4.1364 0.5333 -1.7890 0.0707 -0.6872 1.2336 1.6543 -1.6308 1.2998 -1.4608 -0.2641 2.8225 3.4394 -0.3799 0.3701 0.5287 1.2099 -3.5642 -5.0231 -0.8878 5.2158 3.3419 -0.0711 -1.0221 1.0500 0.2832 1.9015 2.3745
-2.1566 0.0027 -1.8522 -3.9311 -0.2421 -0.1717 -0.0866 -3.9395 -4.8587 1.0324 4.8500 2.6184 -1.5923 5.0641 4.7658 0.3738 -6.1986 -5.3051 -2.8467 3.2927 4.0667 1.1622 -0.5410 2.0942 1.3937 2.9738 0.7920 2.1557 -3.6002 -2.0247 2.7945 -2.3605 -1.4475 2.3133 -3.6202 -3.5257 2.1777 -2.0562 -0.1036 -1.5926 -0.1507 0.5692 -1.2667 4.3139 2.5614 1.8723 -4.9101 -4.0225 1.3245 -0.8984 -0.1916 -0.3562 1.6816 1.5973 -2.5791 0.3687 -0.4493 0.1336 3.7567 2.6949 -0.3070 0.6498 0.5813 0.7123 -5.0612 -4.7624 -1.9893 4.1383 3.8601 0.7997 -0.3129 0.9444 0.4583 2.7994 1.5690
-1.3786 -2.6939 1.5184 -2.6129 -0.6625 2.1051 2.2094 -6.3588 -4.0324 -1.7193 5.3166 1.4097 -0.7189 2.3178 4.5009 0.0153 -6.4317 -3.1961 -0.8564 4.5418 4.9905 1.7789 1.6742 -0.1110 -1.4845 3.3846 -0.3921 2.5193 -2.4556 -2.5424 2.0413 -1.2218 -3.2707 2.4075 -3.6504 -3.4582 2.1363 -0.0084 -2.3792 -0.3665 -0.5069 1.0520 -1.9920 3.6415 3.0534 1.2719 -4.4507 -3.0464 0.9012 0.1954 -1.6608 -0.5984 1.8951 1.1387 -1.6704 -1.2731 1.0937 -1.1488 4.1108 1.8878 -0.4482 0.7680 0.2349 1.1164 -5.7705 -3.4280 -1.1323 3.5884 4.2783 0.8699 0.9450 -0.4993 -1.1403 3.1050 0.7534
-3.3042 -0.6711 -1.3685 -2.9051 1.6698 -0.7546 2.0457 -3.4140 -4.6993 1.2241 4.6509 2.5578 -2.6965 2.7744 3.3542 -0.2342 -3.3808 -5.2632 -1.8434 4.4189 4.6864 1.0454 -0.6895 2.0560 1.6006 2.8306 0.6565 1.3748 -4.2096 -1.2280 2.4433 -3.1443 -1.1601 1.5500 -5.0190 -2.4900 2.2754 -2.3178 0.0894 -1.4908 -0.1283 0.2001 -1.0855 4.1776 2.4033 0.5119 -4.6603 -3.4362 1.4758 -1.1472 -0.1736 -0.2285 1.5854 1.3370 -2.2376 0.3423 -1.0271 0.2974 3.5806 2.5493 -0.1376 0.5407 0.3361 0.7350 -3.7970 -4.4946 -1.8887 3.8294 3.6175 0.8427 -0.4863 0.8618 0.6299 2.6647 1.3897
-1.1688 0.4212 -2.5716 -3.4115 0.7983 -1.6403 1.9346 -4.1286 -5.2117 1.5713 4.2590 2.8006 -1.2272 4.7416 4.6353 0.3385 -2.4071 -5.3183 -2.8043 3.5539 3.4944 0.0659 -1.0025 2.3215 1.8963 2.2595 1.0994 0.8891 -4.5815 -1.1443 1.9277 -3.7300 -0.4533 1.2254 -4.7345 -2.6066 1.2758 -2.9729 0.6764 -1.5940 0.1148 -0.1384 -0.7510 4.1811 2.4004 0.5652 -3.6868 -3.3601 0.9506 -1.6291 0.2725 -0.2845 1.5234 1.3608 -1.9320 0.9219 -1.3689 0.4796 3.3580 2.7127 -0.2168 0.4415 0.4006 0.9238 -3.3684 -4.6573 -1.7111 4.0976 3.5461 0.2699 -0.7872 1.1305 0.7874 2.3567 1.6196
-0.3909 0.6078 -3.2710 1.7925 0.7832 -2.1319 2.3414 -3.3164 -2.9974 0.5385 2.5389 4.8461 -1.8011 4.9675 3.7591 1.9539 -1.6487 -4.6022 -1.6695 4.6502 1.5036 -1.8538 -0.7776 1.2890 1.3383 0.6725 3.0950 -1.0489 -3.8974 -2.0679 -0.2275 -4.0721 -0.8130 -0.2317 -4.2963 -3.2730 -0.7861 -3.2078 0.2886 -0.3124 1.0242 -0.8381 0.1115 3.8833 2.9480 0.2126 -3.0978 -3.9594 -0.0853 -1.9511 0.3543 -0.2289 1.3654 1.5341 0.3614 0.3271 -1.9944 -0.1247 2.5351 3.5981 0.0941 0.4209 0.4904 1.5216 -2.6527 -3.8884 -1.2067 4.5190 2.6276 -0.7425 -0.8086 0.7673 0.4441 1.4316 2.7353

>  <OB_ATOM_TYPES> (1aecA1)
C.3 C.3 N.pl3 O.3 O.co2 N.pl3 O.co2 O.2 O.2 C.3 C.3 C.3 C.3 C.3 C.3 N.pl3 N.am N.am C.3 C.3 C.3 C.cat C.2 C.2 C.2

>  <ENSEMBLE_RMSD> (1aecA1)
1.824 1.832 1.928 1.928 1.935 1.948 1.974 1.979 2.040 2.067 2.116 2.124 2.126 2.140 2.143 2.166 2.232 2.272 2.281 2.285 2.337 2.359 2.363 2.386 2.433 2.439 2.441 2.458 2.486 2.533 2.547 2.565 2.584 2.594 2.603 2.637 2.641 2.664 2.696 2.759 2.800 2.866 2.963 3.026 3.031 3.056 3.099 3.100 3.147 3.448

$$$$
