
 OpenBabel03071213D

 31 30  0  0  0  0  0  0  0  0999 V2000
   24.2370    7.8530   17.8320 C   0  0  0  0  0
   24.4680    7.2820   20.2760 C   0  0  0  0  0
   13.5390    3.3530   17.7400 C   0  0  0  0  0
   14.3680    4.7510   19.6640 C   0  0  0  0  0
   20.5330    4.5160   17.7300 C   0  0  0  0  0
   20.0640    6.8310   17.1240 C   0  0  0  0  0
   19.0640   10.0530   23.7460 C   0  0  0  0  0
   17.7590    8.1090   22.9570 C   0  0  0  0  0
   23.9360   11.4700   24.3050 O   0  0  0  0  0
   23.0310   12.4140   20.1680 O   0  0  0  0  0
   17.0350    3.8640   19.6860 O   0  0  0  0  0
   21.9600    8.4640   22.7750 O   0  0  0  0  0
   18.1640    8.0550   19.5630 O   0  0  0  0  0
   23.6030   12.3260   23.4280 C   0  0  0  0  0
   22.6430   11.8060   22.3740 C   0  0  0  0  0
   23.9740    9.6530   19.5500 C   0  0  0  0  0
   15.8690    4.3700   17.6520 C   0  0  0  0  0
   17.8230    5.5970   18.4620 N   0  0  0  0  0
   21.9000    9.7750   20.8850 N   0  0  0  0  0
   19.7660    7.3430   21.0400 N   0  0  0  0  0
   23.7680    8.1780   19.2410 C   0  0  0  0  0
   14.4350    4.4960   18.1710 C   0  0  0  0  0
   20.2140    5.8900   18.3140 C   0  0  0  0  0
   19.1580    8.6670   23.0690 C   0  0  0  0  0
   23.4830   11.6370   21.1040 C   0  0  0  0  0
   23.3400   10.1170   20.8750 C   0  0  0  0  0
   18.9900    5.8600   19.2950 C   0  0  0  0  0
   19.8570    8.6710   21.7260 C   0  0  0  0  0
   16.9720    4.6170   18.6700 C   0  0  0  0  0
   21.3700    8.9950   21.8100 C   0  0  0  0  0
   18.9450    7.1940   20.0250 C   0  0  0  0  0
  1 21  1  0  0  0
  2 21  1  0  0  0
  3 22  1  0  0  0
  4 22  1  0  0  0
  5 23  1  0  0  0
  6 23  1  0  0  0
  7 24  1  0  0  0
  8 24  1  0  0  0
  9 14  1  0  0  0
 10 25  1  0  0  0
 11 29  2  0  0  0
 12 30  2  0  0  0
 13 31  2  0  0  0
 14 15  1  0  0  0
 15 25  1  0  0  0
 16 21  1  0  0  0
 16 26  1  0  0  0
 17 22  1  0  0  0
 17 29  1  0  0  0
 18 27  1  0  0  0
 18 29  1  0  0  0
 19 26  1  0  0  0
 19 30  1  0  0  0
 20 28  1  0  0  0
 20 31  1  0  0  0
 23 27  1  0  0  0
 24 28  1  0  0  0
 25 26  1  0  0  0
 27 31  1  0  0  0
 28 30  1  0  0  0
M  END
>  <MOLID> (1apuA1)
1apuA1

>  <SMILES_CANONICAL> (1apuA1)
OCC[C@@H]([C@@H](NC(=O)[C@H](C(C)C)NC(=O)[C@H](C(C)C)NC(=O)CC(C)C)CC(C)C)O	

>  <FINGERPRINT> (1apuA1)
0000000000000000000000000000000000000001000000000111000000000000000000000001000000000000000000000000010000000000000001000000000000000000000110000000000010000000000000000000000000000000000000000000000000000000000000000000000000100000000000000000000000001000000000000000000000000000000000000000000000000000000000001000000000000000001000000000000000000000010000000000000000110000000000000000011000000000100000000000001000000000100000000010000000000001100000000001100000000000000000000000000000001000000000000000100000010000000000000000000000000000000000000000000000000000000000000000000101000000001000000000000000000000000000000000001000000001000000000000000000000000000000000011000000000100000001100000000000000011000000000000000000000011000000100000000000000000000110000000000000000000000000000000000000000000000000000000000000000000000000000000000000000000000000000001000000000000000000000000000000001000000000000000000000000000000000000000010000000000000000010010000000000010010000000000000000000000000000000010101000000000

>  <MACCS166> (1apuA1)
000000000000000000000000000000000000000000000000000011000000000000000000010000100100000011110010000000010001111000101100000000011011000101111100011010111111111110010000

>  <OB_MW> (1apuA1)
443.336

>  <OB_logP> (1apuA1)
2.761

>  <OB_PSA> (1apuA1)
127.76

>  <OB_MR> (1apuA1)
124.004

>  <OB_ATOMIC_CHARGES> (1apuA1)
5.79555e-05 5.79555e-05 0.000503441 0.000503441 0.0022754244 0.0022754244 0.0022754269 0.0022754269 -0.2203347326 -0.221216671 -0.2733315613 -0.2714872002 -0.2714758668 0.18478141 0.0701868487 0.0242754741 0.0868226526 -0.1977780799 -0.2031452296 -0.1963426209 0.0017907232 0.0091371307 0.0289616879 0.0289622907 0.174373575 0.1256635939 0.1726466428 0.172689548 0.2417551171 0.2612374669 0.2616033053

>  <MCT_HBD> (1apuA1)
5

>  <MCT_HBA> (1apuA1)
8

>  <ENSEMBLE_TOTAL> (1apuA1)
50

>  <ENSEMBLE_COORDS> (1apuA1)
4.0122 1.3227 -2.4646 5.5541 1.2836 -0.5391 -4.3111 -5.0902 -2.6921 -5.9887 -4.3913 -0.9999 0.6491 -2.8899 -0.7715 -0.8044 -4.2379 -2.2019 -0.8952 2.4432 2.8024 -2.4917 0.5976 2.6524 5.5853 5.3463 2.3909 2.2044 3.1548 3.0650 -4.5541 -1.6176 -0.5843 1.5232 -0.3359 1.0273 -1.4676 0.1677 -1.7467 4.8329 4.4769 3.2195 4.4718 3.2519 2.4156 3.4456 2.5673 -0.4048 -5.0763 -2.7139 -2.6529 -2.8410 -2.1776 -2.0495 1.3993 1.9603 0.6985 -1.1246 -0.4933 0.4519 4.1071 1.3307 -0.9612 -5.4511 -4.1530 -2.3884 -0.5002 -2.8276 -1.7505 -1.0530 0.9910 2.4074 3.0405 3.3323 1.9303 2.7972 2.2270 0.9196 -1.7197 -2.1621 -1.1315 -0.6366 0.7725 0.9596 -4.1501 -2.1345 -1.6208 0.8733 0.6969 0.8974 -1.4305 -0.6981 -0.8784
5.3409 1.8598 -2.1294 3.8621 3.7091 -2.8035 -6.1637 -3.5217 -3.9520 -6.7720 -4.3638 -1.7257 -0.0943 -4.4344 -0.2944 0.2551 -2.8807 -2.1930 0.1501 1.1394 3.4793 -1.4433 2.7167 2.4218 3.8323 4.3652 4.6741 4.8627 2.5398 1.1803 -4.2569 -3.3269 0.0104 1.7259 0.0555 0.7241 -1.8819 -0.1615 -1.2811 3.6286 3.2183 3.8653 3.2471 3.6770 2.4774 3.1713 2.1252 -1.0270 -4.3957 -3.9909 -2.2965 -2.5398 -2.7835 -1.4543 1.2718 2.3187 0.4488 -0.9432 -0.4994 0.8099 4.3301 2.8696 -1.6420 -5.8077 -3.4844 -2.4859 -0.1797 -2.9992 -0.7519 -0.9262 1.3005 2.4332 3.4771 2.5620 1.4807 2.6339 2.7812 0.2303 -1.5516 -2.4195 -0.4652 -0.5342 0.8670 1.0375 -3.7550 -3.3316 -1.1082 0.9438 1.0019 0.7284 -1.4876 -0.9093 -0.3916
5.1976 2.0475 -1.7163 2.8630 2.7123 -2.1254 -4.5850 -4.0325 -3.0807 -6.7537 -2.8926 -2.8945 -0.7267 -4.2717 -2.8007 -0.4344 -1.8132 -2.8612 -1.1223 1.2471 3.4149 -2.2163 1.7729 1.2530 5.2034 6.0875 2.4836 4.4160 2.1045 2.5815 -3.9153 -3.7343 0.3045 0.3782 1.3186 -0.5164 -0.0020 -2.8690 1.1913 4.3549 5.0565 2.9636 3.8517 4.2808 1.7715 3.5013 1.6096 0.0060 -5.0127 -2.2965 -1.2606 -2.6390 -2.3690 -1.0734 1.5770 1.3722 1.4699 -0.8796 -0.8916 0.3628 3.9366 2.5695 -1.0748 -5.2665 -2.7454 -2.6838 -0.4288 -3.0406 -1.9815 -1.5352 0.7016 2.0713 3.3285 2.9204 2.1743 2.5907 2.2896 1.0084 -1.3534 -2.9567 -0.7852 -0.3805 0.0099 1.3732 -3.8122 -2.9058 -0.5941 0.5390 0.9700 0.6501 -0.6741 -2.2516 0.3689
0.8893 0.6254 -2.9626 3.3093 0.5504 -2.5140 -3.7301 -4.4405 -3.9238 -3.3235 -2.3327 -5.1400 0.6695 -3.0076 1.0400 -0.0567 -4.1374 -0.9958 -0.3910 2.0587 4.2259 -2.5122 0.9215 3.7956 5.7486 3.9135 2.9181 2.1316 4.4146 0.9820 -4.2569 -2.6185 -0.4296 1.6324 0.1976 2.2904 -1.3670 0.1725 -0.6336 5.1245 3.9386 1.6444 3.9277 3.0220 1.6937 1.8734 2.1605 -1.3038 -4.0570 -2.2543 -2.7855 -2.1548 -2.2587 -1.3396 0.9656 1.9710 0.9408 -1.1012 -0.5174 1.5594 1.9500 0.7744 -1.9000 -3.2400 -3.0206 -3.8015 -0.0102 -2.7961 -0.2948 -1.0165 0.8431 3.5803 2.9748 3.3512 0.5715 2.1783 2.1228 0.1762 -1.3980 -2.1985 -0.1083 -0.7145 0.7685 2.0947 -3.5197 -2.4169 -1.3895 0.7631 0.9126 1.8033 -1.2886 -0.7198 0.2063
6.1755 1.2648 -0.5484 4.3723 2.6370 -1.5214 -5.4060 -2.5930 0.7219 -5.9785 -1.2795 -1.3027 0.3189 -2.3130 -3.6074 -1.9571 -1.5075 -4.0698 -1.9908 1.8626 0.6263 -2.4730 -0.1096 2.0319 2.9006 6.1488 2.9494 4.6289 1.8594 2.9620 -3.0386 -4.5277 -0.5398 1.0200 1.2567 -0.7702 -0.1576 -2.8468 0.2353 2.5356 4.7765 2.9578 3.7110 3.9801 2.4476 3.9259 1.1700 0.4372 -4.9239 -3.5106 -1.6053 -2.7853 -2.4528 -1.5485 1.7094 1.1772 1.4405 -0.7695 -0.6884 -0.3555 4.9347 2.0660 -0.2418 -5.8193 -2.6635 -0.7274 -0.9114 -1.6865 -2.9957 -1.3831 0.7912 1.5037 3.4275 2.5006 2.5616 2.9122 1.9592 1.2415 -1.3673 -2.5155 -1.8047 -0.2860 -0.0099 0.8244 -3.4897 -3.5707 -1.1603 0.8622 0.8776 0.3879 -0.6976 -2.0524 -0.5304
6.1840 0.9035 -0.4790 4.6573 2.5447 -1.5042 -5.7843 -2.0427 -0.5167 -6.9643 -4.1957 -0.5844 -0.8765 -2.4083 -4.2652 -2.1139 -0.4824 -3.3342 -1.8949 2.3515 -0.2430 -2.7979 0.6659 1.3121 3.9404 5.7724 4.1520 4.8194 2.0487 2.7633 -2.6465 -4.4359 -0.1043 1.1346 1.5006 -0.9599 -0.4404 -2.4592 0.4148 3.5970 4.3967 4.1146 3.4462 3.9796 2.6695 3.9011 1.1331 0.4019 -4.6390 -4.0733 -1.3873 -2.7491 -2.6644 -1.6147 1.6590 1.4230 1.2959 -0.7500 -0.3918 -0.5681 5.0628 1.8780 -0.2133 -5.6230 -3.5379 -0.3696 -1.0717 -1.5407 -3.0488 -1.5506 1.4092 0.8890 3.4820 2.4711 2.5429 2.9665 2.0482 1.1735 -1.3459 -2.3813 -1.8107 -0.4193 0.4449 0.5665 -3.2319 -3.7756 -0.9556 0.8546 1.1826 0.1940 -0.8055 -1.7643 -0.5309
3.7525 1.6465 -2.9267 1.4042 2.3774 -3.0369 -3.2297 -3.2859 -4.7565 -5.0430 -1.9465 -3.7516 0.6763 -3.8329 -0.3899 0.6121 -1.7647 -1.7462 -0.6874 1.7429 4.6015 -2.1646 -0.1827 4.3789 5.4912 4.8069 1.6398 4.2820 1.0438 0.7295 -4.0273 -3.1151 -0.0620 -0.0468 2.7977 1.9308 -2.1630 -0.0240 -0.2090 4.5628 3.8246 2.0695 3.7753 3.3722 0.8641 2.2113 1.1020 -1.0777 -3.8334 -3.6346 -2.3896 -2.0794 -2.5521 -1.1908 1.0653 0.9713 1.0651 -0.9897 -0.6569 1.6849 2.5756 2.1355 -2.1180 -3.7136 -2.6109 -3.4969 0.2439 -2.3876 -0.4193 -0.8952 0.4484 3.8504 3.2671 1.9681 1.0749 2.0001 1.7402 0.2784 -1.2268 -2.2584 -0.0633 -0.9967 0.6294 2.3456 -3.3458 -3.0768 -1.0809 0.0512 1.5803 1.7730 -1.5284 -0.8581 0.4290
6.2134 0.7675 -0.0711 4.6631 2.2292 -1.3217 -6.6008 -2.6234 -1.5832 -6.1816 -3.9362 0.4620 -0.8428 -2.3611 -4.3339 -2.0763 -0.4250 -3.4205 -2.8371 0.8643 1.1667 -1.2263 2.6398 1.6368 3.7817 6.1405 2.7562 4.1418 1.5479 3.3740 -2.5558 -4.5375 -0.3625 1.2744 1.3330 -0.9335 -0.5967 -2.4226 0.3976 3.2837 4.9067 3.2481 4.0679 3.7913 2.6020 3.9017 1.0189 0.7094 -4.6306 -4.0920 -1.4606 -2.7441 -2.6710 -1.7456 1.5959 1.3887 1.3636 -0.7652 -0.3535 -0.6129 5.0561 1.7287 0.0468 -5.5349 -3.1755 -0.6690 -1.0477 -1.4923 -3.1188 -1.5666 1.5239 0.6770 3.3145 2.4855 2.7044 2.9129 1.9893 1.3251 -1.3464 -2.3323 -1.8873 -0.4644 0.4847 0.5345 -3.1967 -3.8132 -1.1171 0.8776 1.1196 0.2095 -0.8705 -1.7236 -0.5761
5.3485 3.1482 -1.6236 2.9662 3.2774 -2.2010 -5.8991 -4.9959 -2.0367 -4.8263 -4.9806 -4.2498 -1.5904 -4.4644 0.3003 -0.4997 -3.7442 -1.8104 -2.4905 2.0713 2.0238 -1.0336 0.7007 3.4918 6.2772 4.7853 1.7843 2.6622 3.3094 2.9684 -4.9399 -2.0749 -0.6447 1.4770 -0.3616 1.5483 -0.8567 -0.3167 -1.5699 5.5100 4.2138 2.8294 4.9032 2.9279 2.3296 3.7207 1.8324 -0.3450 -4.8238 -2.9179 -2.8835 -2.8825 -2.1957 -1.7113 1.6289 1.8568 0.8708 -1.1371 -0.3802 0.7343 3.9480 3.1417 -1.0642 -4.7582 -4.4295 -2.8473 -1.0328 -3.2966 -0.4725 -1.0891 1.5640 2.2556 3.4972 3.1602 1.8260 3.0568 1.9579 1.0108 -2.0343 -2.1607 -0.5453 -0.5257 0.8940 1.0188 -4.2461 -2.3600 -1.6148 0.9596 0.6885 1.1820 -1.2893 -0.8507 -0.5542
2.5777 0.4093 -2.6492 4.5264 1.4520 -1.5540 -4.2021 -0.8606 -4.1794 -3.0910 -3.0879 -4.3442 0.5291 -3.8492 0.4647 -0.7851 -4.8463 -1.3364 -0.4532 1.2967 4.2323 -1.7358 -0.7815 4.1399 5.1827 5.9244 1.3678 1.8621 3.8089 2.3778 -4.1424 -1.1416 -0.6038 1.8359 -0.3776 1.7468 -0.9915 -0.4053 -0.7280 3.8496 5.6105 0.9967 3.7174 4.1073 0.9462 2.2416 2.1518 -0.9341 -4.6533 -2.6282 -2.4140 -2.4884 -2.5549 -1.4100 0.9028 1.6220 1.0080 -0.8793 -1.2044 1.4455 3.1044 0.9873 -1.3581 -4.2950 -2.3269 -3.8523 -0.3819 -3.5346 -0.6993 -0.5143 -0.0739 3.5993 2.2657 3.6800 1.0208 2.1426 2.2290 0.5761 -1.5932 -2.7101 -0.2744 -0.5236 0.0481 2.0842 -3.7521 -2.0134 -1.3736 0.8781 0.3783 1.6135 -1.1338 -1.3093 0.0910
3.2182 0.2930 -2.4475 5.0062 1.5264 -1.3011 -5.3081 -1.2026 -2.6814 -5.3404 -2.2677 -4.8865 -2.9359 -3.4988 1.1893 -1.2895 -4.9597 0.0461 -0.2743 1.2238 4.3065 -1.5626 -0.8344 4.0176 4.7792 6.2924 1.7611 1.8314 4.0646 2.1483 -1.9410 -4.0123 -2.9869 2.1285 -0.1756 1.8680 -1.3634 -0.0873 -0.5167 3.8425 5.8439 0.7940 3.7993 4.3362 0.8552 2.6274 2.1281 -0.9280 -3.2129 -2.0888 -3.6400 -2.4178 -2.3746 -1.4118 1.1263 1.6949 0.9310 -0.4974 -1.1257 1.3474 3.5990 0.9954 -1.1671 -4.7058 -2.3083 -3.5160 -1.5626 -3.5693 0.5648 -0.3101 -0.1042 3.5830 2.3722 3.8275 0.8556 2.3679 2.3372 0.5502 -1.3031 -2.5062 -0.4914 -0.2608 0.1074 2.0763 -2.4539 -2.9466 -2.6643 1.1342 0.5083 1.6430 -1.0929 -1.1170 0.1009
5.2538 -0.5720 0.7472 5.8600 1.8155 0.7552 -5.1460 -3.8181 -3.4113 -5.6656 -1.6376 -4.4144 0.7758 -1.6430 -1.6131 -1.0536 -2.0555 -3.1729 0.1185 -0.7080 4.9458 -1.0126 -2.4215 3.6237 3.3398 6.2112 -1.1324 0.6832 3.3647 0.2983 -3.9920 -3.0882 -0.3515 2.0957 0.5526 3.1560 -1.7075 0.6328 0.3877 2.6733 4.9836 -1.3778 2.8783 4.0976 -0.1745 3.6332 1.1077 -0.0593 -5.0866 -1.7629 -2.0203 -2.9531 -1.1735 -1.1544 1.4604 0.8201 0.9606 -0.4037 -1.0840 1.2423 4.7350 0.8293 0.9359 -4.8134 -2.3453 -3.3898 -0.6412 -1.2487 -1.9620 0.1077 -1.4053 3.6047 1.9313 2.9200 -0.2212 2.4763 1.7935 0.6367 -1.5848 -1.4829 -0.7903 -0.0240 -0.4040 2.4632 -3.9608 -2.1081 -1.0871 1.2945 0.3443 2.2453 -1.2721 -0.5142 0.3298
6.3860 1.6149 0.6036 4.7155 0.3741 -0.7082 -4.2481 -2.4863 -4.1712 -5.2554 -4.2431 -2.7365 -0.7817 -3.9731 -1.6331 -0.3917 -1.6647 -2.4552 1.6944 -1.4160 3.3345 0.6731 0.6187 4.3212 0.3699 4.1998 -1.0205 3.6187 4.3441 1.7380 -4.6794 -2.6373 0.1347 1.5564 -0.2785 0.1617 -2.0809 0.2854 0.0325 1.3926 5.1451 -0.7486 2.6718 4.4031 -0.4429 4.0058 1.6865 1.2678 -5.3231 -1.8178 -2.0227 -3.0519 -1.8307 -1.3129 1.5681 1.6493 1.4529 -0.7884 -1.0855 1.3797 4.9641 1.6225 0.1014 -5.3332 -2.8010 -3.1721 -0.6894 -2.5181 -1.2455 0.4705 -0.5349 3.3721 2.5934 3.7887 0.9351 2.6920 2.2834 0.8146 -1.9142 -2.0806 -0.4645 0.0027 -0.0591 2.0147 -4.3358 -2.1609 -0.9422 1.1245 0.3905 1.0954 -1.6265 -0.8185 0.3159
6.1487 3.1630 0.5611 5.6159 1.3688 -1.0441 -5.9964 -2.5584 -2.0039 -6.0125 -0.2354 -2.8023 -1.8164 -4.4549 -2.8994 -0.6746 -2.3265 -3.4786 -1.4247 0.2380 2.9746 -0.4492 -1.8351 3.9131 1.4163 6.1652 -0.5649 2.9890 3.6742 2.3146 -3.7114 -2.5908 0.4804 0.1819 0.8369 0.1418 1.0510 -2.5566 -0.6108 1.1304 5.0954 0.3207 2.1704 4.0281 0.0994 4.2939 1.6106 1.0263 -4.4903 -0.8560 -0.9730 -2.2960 -1.7827 -1.1731 2.1064 0.6572 1.4308 -0.4852 -1.7517 0.9180 5.0402 2.3499 -0.0563 -5.1415 -1.3379 -2.2512 -0.8760 -3.3802 -2.4161 -0.1793 -0.6110 3.0744 2.2263 3.0865 1.2761 2.8047 1.7588 0.8262 -1.3066 -2.8330 -1.0685 0.4198 -0.9792 1.7316 -3.4817 -1.8508 -0.4717 0.8576 0.2629 0.9902 -0.1108 -2.3552 -0.2654
5.3141 3.1767 -1.6212 3.7563 4.8220 -0.6476 -3.9996 -5.5504 -2.0300 -5.9277 -4.2217 -2.7759 -0.2561 -2.6268 -2.8724 -1.5394 -0.5121 -2.9045 -3.2734 2.4143 -0.0192 -1.9591 3.8085 1.4974 6.0372 0.6443 3.6094 3.8143 -0.0264 0.2550 -2.8454 -3.8383 0.7055 0.5158 1.9891 2.6153 -0.6335 -1.3614 1.4774 4.7568 0.2879 3.1134 4.3260 1.3529 2.1357 3.1288 2.4338 -0.7646 -4.6704 -3.4900 -0.7951 -2.7446 -2.0748 -0.8014 1.1254 1.7489 0.3935 -1.2115 0.3893 0.0713 4.2657 3.4050 -0.5610 -4.5561 -4.1518 -2.1497 -0.6890 -1.4326 -2.0614 -1.8691 2.7126 0.4595 3.2405 0.8405 1.2185 2.5331 2.0131 0.5613 -1.3199 -1.8686 -0.7556 -1.2043 1.4709 1.0305 -3.3191 -3.1839 -0.2183 0.2286 1.7645 1.4409 -1.0245 -0.9355 0.3933
3.3228 2.8744 -2.8414 1.0000 3.1774 -2.0837 -5.5116 -2.2781 -2.8726 -4.1102 -2.3222 -4.8917 -2.2574 -5.5175 -0.6682 -0.1096 -4.7763 -1.6594 0.1571 0.4120 4.3038 -1.8636 1.0495 3.0077 4.4898 6.3660 2.0475 4.5769 2.3944 1.1720 -3.5127 -1.2181 -0.4593 -0.4079 1.1935 0.1914 0.7294 -2.9835 0.9019 4.1898 5.0480 2.4782 3.3170 4.4052 1.4275 2.6217 1.9302 -0.6830 -3.2068 -1.3425 -2.8258 -1.7055 -2.4070 -1.3136 1.5882 1.1853 1.3836 -0.8750 -1.3409 1.2086 2.4385 3.0848 -1.6377 -4.0991 -2.4259 -3.3864 -1.0430 -4.6447 -0.4788 -0.8033 -0.0039 3.2204 3.3110 2.9001 1.5656 2.1957 2.3133 0.7191 -1.4395 -3.2199 -0.1484 -0.0677 -0.4210 1.9665 -2.8551 -1.6494 -1.4007 0.3170 0.7386 1.0713 -0.3868 -2.5218 0.6856
5.2373 0.3407 2.4823 5.5520 2.7007 1.8518 -5.1434 -3.8168 -3.4804 -6.0241 -1.6240 -4.1462 0.6648 -1.1763 -1.9314 -1.2503 -1.6342 -3.3757 0.2879 -1.0970 4.8274 -0.8504 -2.7088 3.3963 3.4941 5.6490 -2.1451 0.7590 2.8470 -0.7252 -3.7980 -3.2867 -0.4302 2.0022 0.5527 3.2052 -1.7558 0.5952 0.4680 3.0562 4.3000 -2.1336 2.8889 3.8727 -0.6962 3.8592 1.3216 0.6829 -5.1706 -1.9361 -1.8554 -3.0308 -1.2039 -1.1090 1.5113 0.7825 0.9683 -0.3553 -1.1363 1.1106 4.5469 1.5905 2.0012 -4.9842 -2.3250 -3.3059 -0.8143 -0.9239 -2.1137 0.2396 -1.6612 3.4245 2.1471 2.5566 -0.6187 2.4414 1.8635 0.7034 -1.6085 -1.3972 -0.9045 0.0253 -0.5649 2.3850 -3.9297 -2.2459 -1.0648 1.2866 0.2899 2.2385 -1.2847 -0.5245 0.2903
2.1353 -0.0541 -3.1199 4.3874 0.1720 -2.1443 -0.8931 -2.5834 -4.6743 -3.3309 -2.4978 -5.0254 -4.6938 -1.3822 0.5665 -3.9007 -3.5777 1.3964 -0.4173 2.7004 3.5877 -2.2992 1.1412 3.6861 5.1444 4.1453 3.3739 2.1373 4.2158 0.5000 -0.9430 -4.1246 -1.2517 1.6812 0.2062 2.2054 -1.7767 0.1379 -0.6165 4.8908 3.9866 1.9876 3.7244 3.0426 1.8344 2.5908 1.7396 -1.4904 -2.4267 -3.7174 -3.0836 -2.5099 -2.4171 -1.0893 1.1644 1.6659 0.4707 -1.0667 -0.4046 1.5229 2.9092 0.3153 -1.8791 -2.2353 -2.5211 -3.9887 -3.5186 -2.1411 1.1365 -0.8390 1.2725 3.3162 3.1125 3.1870 0.4621 2.5156 1.8676 0.0126 -2.2643 -2.0576 0.2878 -0.6013 0.9222 1.8585 -1.8570 -3.4524 -1.7185 0.8758 0.8688 1.5595 -1.6956 -0.6557 0.3167
5.8980 -0.6042 2.1965 4.3044 -1.3387 0.4675 -3.4757 -5.9329 -2.1893 -5.2311 -4.2724 -1.7057 -3.4164 -0.3631 -4.1709 -4.8348 0.2473 -2.2324 -0.1847 -1.0951 3.0502 -0.7959 1.2129 3.7281 3.3513 6.0523 -0.5113 4.9125 2.9473 1.5854 -0.9415 -2.8692 -1.6039 1.1308 -0.3454 0.0523 -1.7773 1.8202 -1.1319 3.2095 5.2859 0.6730 3.1530 3.8304 0.2803 3.6952 0.4894 2.0336 -2.9461 -3.9327 -0.8423 -2.8674 -1.6030 -1.2883 1.5685 1.4716 1.4287 -1.5531 0.0555 0.3371 4.8149 -0.1549 1.2493 -3.7628 -4.4650 -1.9958 -3.4351 0.2571 -2.7978 -0.9631 0.1433 2.6794 3.4974 2.9440 1.4564 2.9932 1.5352 1.1896 -2.3946 -0.3812 -1.8968 -0.6786 0.6880 1.2950 -2.1274 -2.7667 -1.3086 0.7589 0.5187 0.8407 -1.9023 0.6255 -0.8677
5.5487 2.7201 3.4757 5.5163 0.3439 2.8380 -6.4882 -5.0915 -2.7052 -4.4615 -4.6623 -4.0354 -0.6512 -1.4165 -3.5223 -2.1348 0.5273 -3.1460 0.5104 -1.1379 3.3272 -1.1214 0.5502 4.1156 5.4784 4.0980 -2.2616 2.7099 3.8111 0.6555 -3.5106 -3.5675 -0.3902 0.5762 2.4889 2.1380 -3.0366 0.0419 0.3128 4.1763 3.6795 -1.8874 4.3063 2.7095 -0.7366 3.5657 1.7885 2.3725 -5.0690 -3.1499 -2.1742 -3.2585 -1.6970 -1.7487 1.7483 0.7815 1.0907 -0.7593 -0.3444 0.5010 5.0710 1.7301 2.4411 -5.0687 -4.5809 -2.6562 -1.2422 -0.4962 -2.4831 -0.7202 -0.3422 2.9658 2.9972 2.5841 0.0062 3.0375 1.4345 0.9968 -1.9187 -1.2896 -1.3768 -0.5817 0.4521 1.6873 -3.8506 -2.8716 -1.3401 0.6275 1.3600 1.6518 -1.9964 -0.4538 -0.1124
5.3695 3.4896 0.9609 5.6882 2.0957 2.9593 -5.9525 -1.5455 -3.7255 -6.6075 -2.6175 -1.6095 0.6153 -3.1043 -2.3011 -0.0041 -0.7534 -2.7984 1.0465 -1.1998 3.9413 -0.9717 0.0721 4.6202 2.9286 2.7040 -3.7870 1.9056 3.8805 0.3545 -3.5042 -3.6667 -0.4476 0.3231 2.1630 2.4225 -2.2088 -0.0269 -0.0421 2.2047 2.2913 -2.6405 2.9766 2.7139 -1.4154 3.4587 2.2569 1.9305 -4.3752 -3.0663 -2.5937 -2.3486 -2.1377 -1.7660 1.6980 0.6788 1.2943 -0.4705 -1.0395 1.1132 4.9420 2.2183 1.6538 -5.4543 -2.0278 -2.3849 0.1017 -1.8090 -1.7251 -0.3450 -0.7761 3.5419 2.0898 2.5909 -0.2015 2.6811 1.6177 0.8004 -1.1730 -2.0286 -0.9340 -0.4262 -0.0954 2.1965 -3.3805 -3.0030 -1.4717 0.5594 1.0377 1.9857 -1.3667 -0.9126 0.0691
2.6530 4.6676 -1.9425 1.9220 5.7546 0.1305 -4.9733 -1.6018 -3.7314 -6.0071 -2.1285 -1.5744 0.3405 -5.1565 -1.2557 0.9286 -2.8622 -2.0228 -2.2218 2.1008 2.6922 -2.6015 1.6754 0.2725 6.8235 2.3666 1.7507 3.4520 1.2157 -0.1883 -3.6001 -3.7658 0.0801 0.4582 0.6932 -0.3390 0.7415 -2.0992 1.3991 5.6357 1.5917 1.7532 4.4672 2.5249 1.5334 1.6517 3.3239 -0.1498 -3.8678 -3.2159 -2.2335 -1.8134 -2.8264 -1.0739 0.8590 1.8425 1.6318 -1.2328 -1.0241 0.9022 2.5407 4.5051 -0.4449 -4.6888 -1.9449 -2.2885 0.4806 -3.7105 -0.8576 -2.2275 1.0618 1.6004 3.2410 1.7536 1.1058 1.9923 2.6194 1.1528 -0.7546 -3.1806 -0.1495 -0.9525 0.2400 1.5700 -3.1022 -3.3039 -0.9419 0.1813 0.9364 0.8335 -0.3255 -2.0531 0.7856
2.3646 5.5656 -0.6797 4.6116 4.5591 -0.5326 -6.0452 -3.9259 -2.6950 -5.7044 -1.8241 -1.4630 1.4973 -2.5496 -0.9646 0.2885 -4.6728 -1.1043 -2.7351 2.7546 0.4682 -2.2648 0.9402 2.0645 6.1632 0.0994 3.0258 2.6652 0.2758 2.2372 -3.3485 -2.7930 1.0024 0.9219 1.7550 -1.4731 -1.4542 -0.7640 -2.1811 5.5510 1.3705 2.8742 4.6913 1.3173 1.6359 2.7862 3.7373 0.9174 -4.4990 -3.8978 -0.7776 -2.2273 -3.2065 -0.9915 1.1172 1.9967 0.8223 -0.8518 -0.2841 0.0113 3.1303 4.2870 -0.4452 -5.0388 -3.0932 -1.9379 0.1906 -3.1889 -1.3805 -1.6623 1.8513 1.0228 3.2411 1.5514 1.9924 2.5404 2.2456 0.8361 -0.9793 -2.5663 -0.6375 -0.9486 1.1477 -0.1137 -3.3133 -3.2289 -0.1439 0.4538 1.6620 -0.3396 -1.1416 -1.1214 -1.0497
6.4693 0.6187 -1.0203 4.3132 0.5933 -2.2173 -4.6975 -4.9356 -4.0133 -3.2903 -5.5855 -2.0956 -5.3076 -0.3510 -0.2920 -4.5501 -2.2944 1.0446 0.2348 0.2958 3.9763 -0.9950 2.1977 2.9720 3.0312 6.1626 0.9098 4.8946 2.2689 2.3600 -2.3727 -1.1867 -3.3543 0.5175 2.2430 0.2559 -1.1298 -2.2448 0.5969 2.7468 4.8765 1.4338 3.8709 3.9529 1.0357 4.3651 0.6206 0.2588 -2.7371 -3.5517 -3.3882 -2.9985 -2.2502 -1.3907 2.1317 0.8340 1.1523 -1.2006 0.0755 0.5652 5.0420 1.1067 -0.9996 -3.8617 -4.4212 -2.8693 -4.1334 -0.9900 0.4069 -0.6877 0.7243 2.8626 3.6884 2.6134 1.7044 3.2723 1.5759 0.6804 -2.9429 -1.0990 -0.5261 -0.1450 0.2882 1.5196 -2.7019 -2.1942 -2.7338 0.8396 1.2464 0.8948 -1.6654 -1.1902 0.2707
2.3449 -0.5485 -1.6505 4.1253 1.1550 -1.5854 -3.8390 0.0933 -2.6921 -2.7912 -0.4118 -4.8896 -2.8275 -3.9982 0.9220 -0.8545 -4.9162 -0.2661 0.5309 0.1244 4.9207 -1.5381 -1.0518 4.3788 3.1067 5.9926 -1.6057 1.6390 4.1970 2.0630 -1.0801 -2.6803 -3.2534 2.3091 -0.2192 2.2864 -1.8363 -0.2023 0.2811 2.7352 5.8245 -0.2477 3.0397 4.4023 0.1612 1.9018 1.6537 -0.6484 -3.4471 -2.3042 -3.3811 -2.3068 -2.3151 -1.3080 1.0085 1.5782 1.5868 -0.2759 -1.3500 1.5469 2.9436 0.5786 -0.8462 -3.7484 -0.8922 -3.8301 -1.4062 -3.7284 0.4833 -0.1086 -0.8314 3.9366 1.8082 3.7275 0.7303 1.9971 2.2200 0.7523 -1.2392 -2.4685 -0.3473 -0.0937 -0.2947 2.5180 -2.1306 -2.4433 -2.6673 1.2224 0.3294 2.1357 -1.1891 -1.2201 0.5157
4.1740 -1.3013 -0.9362 4.8705 0.8990 -1.8107 -2.2946 -4.8464 -2.4641 -1.7440 -3.6988 -4.6025 -5.5640 -1.7599 -0.5077 -3.8970 -2.6273 1.0974 -0.4418 1.6472 4.1422 -2.5954 0.5331 3.7965 5.8373 4.2880 0.9213 2.1214 3.8163 0.0791 -1.5792 -0.8330 -3.0556 0.8872 -0.7510 1.5891 -2.4512 1.3537 -0.5382 4.5727 4.5946 1.4839 3.8083 3.3108 1.7173 2.7228 0.6711 -0.6289 -0.6390 -2.9562 -2.4578 -2.2893 -1.9008 -1.1147 1.0933 1.4832 0.9764 -1.8199 -0.1374 1.1242 4.1502 0.1860 -0.6933 -1.2398 -4.1008 -3.2406 -4.3089 -1.4371 0.2622 -1.1425 0.5476 3.3774 3.0904 2.8607 0.4659 2.4982 1.4705 0.6364 -3.2338 -0.9056 -0.6668 -0.9787 0.7606 1.8818 -1.5632 -1.7831 -2.2798 0.4280 0.3815 1.4776 -2.4719 0.2348 -0.0317
3.3237 2.6355 4.7051 4.8026 3.8944 3.1903 -4.9008 -4.7741 -3.2891 -6.6807 -3.0811 -3.4983 0.1240 -1.1003 -2.8859 -1.8572 -1.9578 -4.0331 0.9241 -0.5024 3.7279 -0.5826 -2.2599 2.9465 5.6979 5.0114 -1.1409 2.7783 1.9984 -1.2264 -3.5137 -3.4659 0.0731 -0.0547 2.0488 0.9378 -2.4015 0.3632 -0.2749 5.4730 3.6744 -0.7241 4.0909 3.6081 -0.1253 3.6850 1.8477 2.3871 -5.3267 -3.1598 -1.4495 -3.3387 -1.8255 -1.5517 1.9014 0.8233 1.1066 -0.5358 -0.9106 0.2648 3.5462 3.0633 3.2747 -5.3063 -3.3629 -2.9456 -1.3900 -1.1117 -2.8681 0.4185 -1.2168 2.4952 3.5930 2.1808 -0.0767 2.7744 1.9706 1.1853 -1.9019 -1.6441 -1.5374 -0.2391 -0.2630 1.5199 -3.9600 -2.8650 -0.8992 0.5333 0.9920 1.1674 -1.6764 -0.6109 -0.4558
3.3969 3.7999 3.7088 4.0356 4.7444 1.5237 -4.2446 -3.0079 -4.2457 -6.4483 -3.5289 -3.2822 0.4723 -2.7381 -2.4962 -0.8264 -0.7363 -3.1338 -0.4992 0.8040 4.4704 -1.0928 -1.4861 3.8481 5.8200 3.1146 -2.1255 2.5359 0.1428 -1.0386 -4.0034 -2.6841 0.2161 -0.0730 2.4593 1.4886 -2.3546 0.0892 -0.1480 5.0240 2.8380 -0.9883 3.7812 2.1034 -1.4275 3.5862 2.3197 1.7589 -4.4108 -3.7578 -1.8889 -2.5825 -2.2646 -1.5697 1.6510 0.9142 1.4057 -0.5977 -0.8365 1.0549 3.1928 3.7022 2.2172 -5.0812 -2.9609 -2.9881 -0.2746 -1.5366 -1.9764 -0.2480 -0.2942 3.4583 3.3591 1.0941 -0.3797 2.5973 1.7851 0.7423 -1.3153 -1.9422 -0.9443 -0.5768 0.1962 2.0620 -3.6579 -2.8551 -0.9476 0.3447 1.3093 1.6130 -1.5098 -0.7871 0.0124
4.8708 -0.8089 2.8315 3.9931 -1.0077 0.5422 -2.3350 -6.2605 -0.4179 -3.8329 -5.6902 -2.2858 -3.9515 -1.0728 -4.4664 -5.1313 -0.0233 -2.5503 -1.0616 0.2559 2.7947 -1.5557 2.6675 2.4663 6.6603 4.5688 1.3162 3.2335 3.2262 3.0945 -1.0285 -2.8316 -1.4233 0.9384 -0.0899 -0.0694 -1.9068 1.6724 -2.2308 5.2426 4.6304 1.3605 4.7185 3.2207 1.2229 3.0089 0.6373 2.1185 -3.0585 -3.9266 -0.7439 -3.0465 -1.6806 -1.4833 1.2581 1.9400 1.0035 -1.6895 0.3371 -0.3631 4.2778 -0.0488 1.6711 -2.6782 -5.2084 -1.4442 -3.8102 -0.1656 -3.2679 -1.6045 1.2954 1.8463 3.2812 3.1221 1.6797 2.6820 1.8089 1.2117 -2.6663 -0.6080 -2.3747 -0.9853 1.2881 0.4645 -2.2446 -2.7836 -1.2745 0.4931 0.9398 0.4304 -2.0712 0.5958 -1.6590
1.4036 5.4550 1.5128 3.3957 5.0909 0.1020 -3.8571 -5.3360 -2.4530 -5.7907 -4.2076 -1.3700 0.6663 -2.9276 0.1924 -0.3946 -4.4264 -1.4139 -1.2522 2.6003 2.9193 -2.2849 0.3868 3.1168 7.4141 1.5931 0.5727 3.6976 -0.1401 0.6661 -4.3207 -1.3717 -1.3146 0.1217 2.3884 -0.5322 -1.2308 0.0054 -1.6933 6.2811 1.3848 1.4002 5.0552 1.7880 0.6187 2.5990 3.2995 1.6135 -4.4135 -2.9776 -3.0917 -2.3659 -2.4100 -2.0198 1.3620 1.2832 1.0849 -1.0585 -0.3856 0.5873 2.1816 4.4394 0.7145 -4.9480 -4.3088 -2.6157 -0.1925 -2.9716 -1.0525 -1.1165 1.1447 2.5300 3.8133 1.1651 1.2185 2.5967 1.9934 0.8441 -1.5203 -2.2493 -0.8478 -1.0461 0.9956 1.0206 -3.7252 -2.1815 -2.0168 0.1959 1.6357 0.4371 -1.2663 -0.7557 -0.7302
2.8565 2.0351 4.5913 3.4864 4.0960 3.3938 -6.3681 -2.6171 -2.5647 -5.9316 -4.0809 -0.6369 0.5441 -2.4507 -1.8355 -0.0601 -0.9105 -3.6713 0.4549 -0.6510 4.1824 -0.2383 -2.5740 2.8396 4.7182 4.3274 -2.5871 2.6515 1.4067 -1.4095 -3.2391 -1.9981 -3.7624 -0.1402 2.1132 2.0225 -2.5020 0.4505 -0.0245 4.9529 3.2903 -1.6480 3.8287 3.3149 -0.6410 3.3880 1.9347 2.1821 -4.1209 -3.6293 -2.2505 -2.2894 -2.2282 -1.6541 1.5455 0.8829 1.0100 -0.6850 -0.8509 0.5860 2.7739 2.7726 3.2791 -5.3306 -3.0462 -1.5556 -0.1157 -1.1353 -2.1803 0.3811 -1.1959 2.7742 3.3787 1.9108 -0.2982 2.5088 1.9582 0.9479 -1.5364 -0.9991 -1.6675 -0.4132 -0.2603 1.8779 -3.1898 -2.5243 -2.6551 0.3296 1.0407 1.6468 -1.6384 -0.3823 -0.2913
2.8180 4.0679 4.0141 3.4210 5.0671 1.8461 -4.5154 -4.9609 -2.7352 -5.6359 -3.3461 -4.2262 0.8524 -2.0283 -1.7358 -0.7985 -3.0468 -3.2118 0.1687 0.4352 4.1968 -1.3942 -1.3407 3.5681 6.5627 2.2082 -0.9146 2.7478 0.7193 -1.0785 -4.0094 -2.5090 0.2121 -0.2154 2.4800 1.1265 -1.9107 0.5825 -0.7734 5.3691 2.0251 -1.6569 4.2147 2.5590 -0.8439 3.3296 2.6097 2.0933 -5.1102 -2.6978 -1.9029 -2.9217 -1.7496 -1.6899 1.6028 1.0711 1.4030 -0.6145 -0.6742 0.6834 2.7072 3.9200 2.5173 -4.6500 -3.5032 -3.0962 -0.5408 -1.8640 -2.3047 -0.2350 -0.5005 3.0809 3.5042 1.4393 -0.1118 2.5658 2.0299 0.9237 -1.5675 -1.7821 -1.1860 -0.6330 0.2267 1.8117 -3.9608 -2.3391 -1.0029 0.2596 1.3847 1.4221 -1.4105 -0.4835 -0.4279
0.6316 5.3518 2.1641 2.5998 5.7593 0.7374 -5.2535 -3.0509 0.0287 -6.1005 -1.9995 -2.0584 -0.0371 -4.9344 -1.1549 -0.0659 -3.9619 -3.4275 -1.4966 1.0930 2.7678 -2.3771 1.6252 0.5096 6.8431 3.5039 2.3695 4.1841 0.6031 0.8035 -3.2290 -2.3623 -3.4441 0.4453 2.0202 -0.6127 -0.7531 -2.6415 0.8355 6.4648 2.4366 1.5168 5.1294 2.7711 0.8960 2.4125 3.6518 2.0182 -4.5121 -3.9544 -2.1912 -2.3803 -3.2079 -1.4514 1.6217 1.4799 1.3165 -0.4427 -0.6797 -0.3657 1.6495 4.7089 1.2555 -5.6189 -3.2755 -1.4164 0.0031 -3.6515 -1.9521 -1.6314 0.6140 1.3446 4.0448 1.8659 1.4422 2.6767 2.4510 1.1329 -1.0581 -2.6409 -1.5611 -0.2945 0.1849 0.7790 -3.3240 -3.0679 -2.4455 0.6103 1.3281 0.3867 -0.7420 -2.0206 -0.2232
3.3027 5.6794 0.4742 5.1545 4.2448 1.2104 -5.7829 -3.2555 -2.4231 -6.0905 -3.1898 0.0169 0.5030 -2.7677 0.3782 0.9080 -3.1159 -2.0413 -1.9483 2.4915 3.0760 -2.5723 0.1459 2.7609 4.3597 -1.7664 -1.1309 3.3376 0.2604 1.8267 -2.4282 -3.6479 -2.7728 -0.2145 3.3466 0.2123 -1.4263 0.6682 -1.8337 4.8048 -0.5743 -0.5029 3.6649 0.4158 -0.5509 2.8361 3.4474 1.4157 -3.9158 -3.8871 -0.9144 -2.0541 -2.4089 -0.8404 1.1413 1.7292 1.1732 -0.9588 0.0612 0.3551 3.7894 4.2561 0.5691 -5.1052 -2.9736 -1.1043 0.4165 -2.1450 -0.9961 -1.5021 1.1768 2.4766 3.5234 1.1631 0.7531 2.4136 2.1985 0.6742 -0.9605 -1.6299 -1.3601 -1.2469 1.3292 0.9860 -2.7295 -3.3134 -1.6315 -0.0625 2.2422 0.7309 -1.1572 -0.1810 -0.9873
5.6840 1.7713 2.8202 4.9906 3.9928 2.0165 -5.0011 -3.0337 -3.9027 -5.6790 -2.9950 -1.5128 -2.0206 -3.9389 -0.4063 -0.7490 -3.3425 -2.4434 1.2774 -1.2189 4.4055 0.4934 -3.0078 2.9329 3.5984 4.2603 -2.7464 0.7362 2.1946 -0.7031 -2.6990 -0.6711 -3.5110 0.4655 1.6970 2.7646 -2.2953 -0.3106 1.0130 2.2891 4.2640 -2.2021 2.3875 3.8925 -0.7427 4.0674 1.9534 0.9655 -4.9045 -0.8744 -2.5906 -2.9636 -1.3722 -1.3122 1.9960 0.7668 1.2968 -0.1047 -1.0287 0.8826 4.5366 2.5747 2.2601 -5.5969 -2.2040 -2.7938 -1.0794 -2.9367 -1.0289 1.1093 -1.6261 2.9568 2.1315 2.4139 -0.5369 2.5595 2.0246 0.8689 -1.5645 -1.4981 -0.9708 0.2380 -0.6225 2.2254 -3.4028 -0.9625 -2.5495 0.8971 0.7355 2.1316 -1.3973 -0.8976 0.4128
2.4584 3.1196 4.2604 4.1363 4.1804 2.7938 -3.1211 -4.8215 -0.3206 -4.2779 -5.8475 -2.2388 -0.4135 -2.5634 -1.5266 -0.5696 -1.3674 -3.6836 -0.7605 1.0865 3.8649 -1.8134 -0.8934 2.8792 6.8131 0.9236 0.0959 2.9384 1.0634 -1.4014 -4.1399 -1.8775 -3.5122 0.0229 3.0829 1.0011 -2.8196 1.3503 -0.8008 5.9294 1.2938 -0.9491 4.7943 2.0933 -0.3559 3.2218 1.9578 2.2183 -4.5847 -3.4453 -1.7574 -3.0888 -1.6298 -1.4530 1.3569 1.1876 0.8957 -1.1721 0.0985 0.2402 2.9121 3.3014 2.8341 -3.6061 -4.5966 -1.7323 -0.7320 -1.2437 -2.1894 -0.7567 0.1667 2.6649 3.5776 1.2174 -0.1397 2.6193 1.8849 0.8307 -2.0951 -0.6694 -1.8539 -1.0012 0.9548 1.3906 -3.9198 -2.2454 -2.3633 0.1660 1.8641 1.0717 -2.0744 0.3739 -0.7639
3.2882 0.8135 -2.8916 4.7142 -0.2576 -1.1899 0.3035 -5.0259 -2.1501 -0.4648 -3.9406 -4.2248 -5.2485 -0.6354 -1.6566 -5.3577 -2.2775 0.1896 -0.6986 3.8852 1.9100 -2.9220 2.8909 2.0927 6.2780 3.3344 2.3617 2.4384 2.3454 2.9458 -2.2723 -3.9253 0.0316 0.4527 0.0406 1.7732 -2.2911 0.6645 -1.5715 5.3814 2.5648 3.1447 4.5894 1.6654 2.2256 3.3865 1.7436 -0.6105 -2.0209 -4.1850 -2.3321 -2.7018 -2.1202 -1.3703 1.2528 1.8090 0.5017 -2.0079 0.5512 0.7302 3.4174 0.4748 -1.4279 -0.5808 -3.9445 -2.7210 -4.6653 -1.0373 -0.3226 -1.4454 2.5739 2.0259 3.2883 2.3195 1.8063 2.6514 1.5055 0.6902 -3.1618 -1.2251 -0.3379 -1.0944 1.6662 0.8563 -2.3309 -3.4162 -1.0831 0.2651 1.0506 1.1017 -2.4430 0.0918 -0.4972
5.7859 2.6119 -0.7615 5.1879 0.4265 0.2027 -5.3775 -2.4964 -2.4939 -5.4825 -1.0802 -4.5004 -2.4832 -3.5318 0.8664 -1.2421 -4.0365 -1.2198 1.7657 -0.4898 4.8938 1.0393 -2.5767 3.8536 0.6373 4.5567 -2.3197 1.5561 1.1022 -1.1269 -1.5547 -1.0781 -3.1558 0.4771 1.9895 2.9457 -1.9102 -0.0654 1.3225 -0.0780 3.4510 -1.7937 0.4697 3.1161 -0.4256 3.9186 2.4571 0.8388 -3.8581 -0.5520 -2.7330 -2.4112 -1.2295 -0.9993 2.0729 1.0375 1.5622 0.1844 -1.0322 1.4933 4.6457 1.7485 -0.2812 -4.5627 -1.6724 -3.4617 -1.2894 -3.1684 0.0149 1.5279 -1.1747 3.5652 1.7791 2.3668 -0.5270 2.4230 2.2330 0.8396 -1.2141 -1.6925 -0.3357 0.5175 -0.3946 2.7458 -2.4750 -0.9871 -2.3517 1.0046 1.0046 2.4332 -1.0539 -0.8433 0.9091
4.9864 1.6868 -1.7044 2.6820 1.4220 -2.5021 -1.7433 -1.8501 -4.7592 -3.1299 0.1358 -4.3965 -3.1103 -5.2096 0.6287 -0.8441 -4.4303 0.0310 2.3222 -1.8575 2.3616 1.4036 -0.4613 4.1977 2.0740 7.0224 0.1513 3.7121 3.5774 1.5224 -4.4502 -0.9677 -1.0885 0.6901 -0.2180 -0.2089 -2.8188 -0.7628 1.8118 2.0518 5.9657 1.0970 1.9399 4.6600 0.3447 3.1773 1.4594 -0.0679 -3.5408 -1.9260 -3.0815 -2.6307 -2.4093 -0.9283 1.2643 1.3061 1.4323 -0.7387 -1.7105 1.4569 3.5442 2.0230 -1.4194 -2.4845 -1.0479 -3.7166 -2.0999 -4.1052 0.8073 1.0669 -1.3434 3.0225 2.3276 3.4929 1.2262 1.9900 2.1830 0.5391 -2.7001 -2.7509 0.4756 0.0711 -0.6857 2.0859 -3.6075 -1.7002 -1.5963 0.7006 0.1300 0.9701 -2.1054 -1.6280 1.3076
5.0731 3.4624 3.7923 3.8154 1.4496 4.4512 -3.4910 -6.2064 -1.2010 -5.1301 -4.4887 -1.8340 -2.4372 -1.5423 -4.5741 -4.2172 -0.2867 -3.3744 -1.3019 0.2514 3.1092 -1.7283 2.6688 2.7426 6.3421 0.5121 -1.1844 3.6012 3.3441 -0.1197 -1.0394 -3.0054 -0.4671 0.8496 -0.1474 0.4527 -1.3399 1.4285 -2.0725 4.9716 0.8730 -1.2308 4.5214 1.1574 0.1805 3.0197 2.8506 2.5663 -3.2565 -3.8981 -0.3497 -2.8023 -1.7973 -1.3812 1.1234 1.9867 1.3129 -1.7615 0.3290 -0.0920 4.2345 2.3143 3.2884 -3.6734 -4.7447 -1.5302 -2.7329 -0.5311 -3.4980 -1.7855 1.2923 2.1296 3.2705 1.9999 0.1759 2.5488 1.8813 1.5034 -2.0391 -0.8736 -2.1918 -1.0945 1.2644 0.7831 -2.2253 -2.8854 -0.7590 0.3825 0.9215 0.8366 -1.6976 0.4198 -1.4647
3.4512 1.3846 4.4427 3.1564 3.7981 4.0514 -6.1938 -1.5948 -0.5321 -6.4250 -3.7899 -1.6201 -0.9288 -4.1017 -2.1287 -0.3602 -2.4099 -3.8484 1.7216 -3.2982 1.7563 3.0727 -1.5565 0.6326 4.6861 5.8910 -0.2544 1.5257 3.1000 -1.0472 -3.4724 -0.4334 -3.4299 0.0716 0.8388 2.6118 -2.0383 -1.4400 0.5975 3.5167 5.3132 -0.8097 2.7603 4.6155 0.2949 3.2345 2.2296 2.1438 -5.0814 -2.0432 -2.7069 -2.8328 -2.0277 -1.8737 1.5439 1.1043 0.8386 0.1814 -1.2447 -0.0152 2.7826 2.4182 3.5719 -5.4905 -2.6305 -1.3746 -0.5166 -2.6681 -2.3702 1.9672 -1.8139 1.6303 2.5334 3.1573 -0.0450 2.0691 2.4038 1.1913 -1.4445 -1.6427 -1.7438 0.6736 -1.0875 1.3303 -3.7227 -1.3920 -2.7044 0.7205 0.3810 1.6743 -1.1616 -1.4605 -0.2634
5.2087 0.2391 -1.3143 2.8596 0.2694 -2.0460 -2.2541 -3.0182 -5.2384 -2.0110 -4.2158 -3.1080 -4.8482 -2.4545 1.4644 -3.4002 -3.9065 0.1153 1.4655 -1.6195 3.0945 0.8131 0.3070 4.5155 2.0329 6.0399 -1.0679 4.2991 3.0365 1.6676 -2.8348 0.0341 -2.3778 0.5632 -0.2046 0.0896 -2.8642 0.8130 1.0669 1.8133 4.9782 -0.1538 3.1075 4.2173 -0.0058 3.4511 0.8482 0.2963 -1.5377 -1.7955 -3.2196 -2.1019 -1.6144 -0.9145 1.4067 1.4210 1.5092 -1.4196 -0.8269 1.8344 3.8785 0.9301 -1.1497 -2.4182 -2.9073 -3.7421 -3.4494 -2.6303 0.9212 0.3430 -0.6891 3.4856 3.0035 3.2174 1.1205 2.4215 1.9145 0.6095 -3.0552 -1.3888 0.1431 -0.3446 0.0052 2.3272 -2.2562 -1.0234 -2.1521 0.5765 0.3667 1.1759 -2.4483 -0.3431 1.0531
5.3913 3.0513 -1.1030 5.1135 0.8529 -0.0278 -3.9364 0.7674 -3.6976 -5.7137 -0.0793 -2.2149 -1.9198 -4.0569 1.0378 -0.6940 -4.4855 -1.0753 1.8789 -0.3153 4.8315 1.5456 -2.5109 3.8180 -1.8758 3.1787 -1.9855 1.4453 0.9659 -1.3149 -1.3908 -1.4943 -3.0841 0.2959 1.9000 2.7683 -1.8203 -0.5121 1.3052 -0.4586 3.2226 -2.0084 0.0425 2.7754 -0.6569 3.5911 2.7214 0.5485 -3.7584 -1.5033 -2.7251 -2.2298 -1.8726 -0.9499 1.9691 1.1022 1.3779 0.3814 -1.2051 1.4663 4.3888 2.0660 -0.5555 -4.2308 -0.0868 -2.4896 -0.8195 -3.5743 0.1223 1.7803 -1.0489 3.5108 1.4620 2.2727 -0.7645 2.1401 2.2970 0.5925 -0.9660 -2.1221 -0.2939 0.6562 -0.4642 2.6761 -2.3244 -1.6148 -2.2984 0.9393 0.9708 2.2852 -0.8830 -1.1981 0.9050
5.2211 2.7437 -1.5707 4.9822 0.6458 -0.3023 -3.6314 0.7677 -3.8586 -5.4805 0.0742 -2.3829 -2.0137 -3.9146 1.1869 -0.7059 -4.4724 -0.8423 1.8089 -0.1521 4.9668 1.4133 -2.3716 4.0300 -2.0886 3.0650 -1.8216 1.2278 0.7668 -1.2740 -1.1940 -1.5431 -3.0044 0.4920 2.0482 2.8399 -1.7783 -0.3526 1.3091 -0.6784 3.0395 -1.9676 -0.0784 2.6561 -0.6366 3.5640 2.6045 0.2464 -3.5734 -1.4498 -2.7592 -2.1470 -1.8053 -0.9001 1.9956 1.1030 1.3549 0.3823 -1.1315 1.5969 4.2457 1.8369 -0.8629 -3.9925 -0.0049 -2.6142 -0.8528 -3.5084 0.3103 1.7219 -0.9344 3.6734 1.3157 2.1095 -0.8280 2.1162 2.2218 0.4559 -0.9268 -2.0719 -0.1739 0.6553 -0.3386 2.7733 -2.1669 -1.5976 -2.2604 1.0239 1.0630 2.3320 -0.8569 -1.0969 0.9840
5.2438 2.7298 -0.5115 5.8201 1.7553 1.6800 -5.2272 -4.3834 0.8812 -3.7467 -5.0094 -1.0155 -3.2064 -2.4283 -3.5092 -4.6669 -0.7854 -2.3707 0.3419 2.8742 -3.6547 -0.1298 3.5036 -1.3138 2.8838 1.6002 6.2971 0.6659 0.8144 2.9544 -3.7821 -1.5099 0.7815 2.5359 -0.0835 -0.9527 -0.2216 -1.3648 -2.7745 2.4916 2.2787 5.1152 2.7369 1.3594 3.9438 3.5101 2.5142 1.2326 -2.8057 -3.6966 0.9125 -2.2091 -2.1594 -0.8020 1.4903 1.4852 0.3942 -0.5568 0.6175 -1.6053 4.7434 1.8823 0.6317 -3.8197 -4.7242 0.4629 -3.2532 -1.0981 -2.7958 0.7393 2.6581 -2.2149 1.7808 1.6860 2.8180 2.4509 1.4572 1.4740 -2.3059 -0.9777 -1.6203 0.7373 1.1822 -1.8819 -3.0150 -2.3387 0.3025 1.6901 0.7914 -0.7797 -0.9159 -0.6301 -2.0789
4.9184 0.7593 -1.5642 4.4962 2.9952 -0.5963 -1.0967 -5.9846 -0.7788 -2.7829 -4.5959 0.3631 -4.6278 -1.3207 -2.2747 -4.3216 -0.5812 0.0636 -1.7155 4.6552 1.6006 -3.5196 3.0390 1.3234 4.8489 -1.4768 3.8310 2.5521 -1.2391 0.4574 -0.0815 -2.2172 -2.2273 0.8573 3.6526 0.1173 -0.9463 1.2204 -2.3365 3.5424 -1.3805 3.2844 3.5084 -0.1767 2.3761 2.7161 1.2732 -0.5742 -0.6459 -3.5999 -0.3615 -1.7352 -1.5210 -0.7489 0.7062 1.4549 0.8216 -1.7846 1.3235 -0.1755 4.2014 1.5212 -0.4768 -1.7147 -4.6094 -0.7052 -3.8676 -0.3906 -1.3642 -2.0156 3.1839 1.4125 2.3225 -0.2384 1.4380 2.1116 1.1236 0.8094 -2.3750 -0.5392 -1.5842 -1.3187 2.6474 0.1726 -0.7869 -2.3936 -1.2399 0.1918 2.6490 0.3644 -1.6369 0.7662 -1.4272
4.8244 1.2028 -1.0453 4.9963 -0.2934 0.9000 0.0371 -3.0713 1.9542 -2.3512 -2.3928 2.1282 -4.3285 -0.0355 -3.5209 -5.0926 -1.6516 -1.8475 0.0007 4.0740 -0.5556 -1.8129 3.8198 -2.1493 3.3470 1.5586 5.4150 0.3319 0.9138 3.0537 -0.2772 -2.9878 -1.4453 1.5389 0.6026 -1.6067 -0.7587 -0.4083 -3.3829 2.4332 0.5502 5.0193 2.5845 0.3103 3.5368 3.2646 1.4855 0.8353 -1.6457 -3.9440 0.2722 -2.3455 -2.0318 -0.9767 0.8613 1.4930 0.4193 -1.5079 0.7329 -1.5035 4.0433 0.4776 0.0218 -1.3913 -3.4660 1.6848 -4.0010 -0.6619 -2.1835 -1.0647 3.1146 -1.0401 1.6808 1.2082 2.7147 1.9122 0.9253 1.2384 -2.6288 -1.3180 -2.2062 -0.5236 1.7951 -1.5604 -1.3250 -2.9446 -0.8094 0.7317 1.2350 -0.9267 -1.5334 -0.2924 -2.4337
5.2587 4.0121 1.4233 5.5066 1.6917 0.6374 -2.7545 -3.1766 -4.4926 -2.0731 -0.8667 -5.0574 -3.0067 -2.5311 2.7764 -4.8275 -2.6751 1.1616 -0.0546 0.8507 4.0063 -0.2939 -1.5405 4.5883 1.9614 1.9796 -4.2260 1.3726 3.8991 -0.1988 -2.8391 0.4478 -1.7011 2.6608 -0.9840 1.2828 -0.4585 -2.3130 -0.0618 1.4378 1.7851 -2.9241 2.2889 2.5556 -1.9444 3.2771 2.5626 1.3192 -3.6188 -1.2799 -3.1600 -2.9714 -1.7460 -0.9276 1.4457 0.9900 1.2200 -0.7431 -0.7188 1.5943 4.5939 2.8940 0.6579 -2.4376 -1.8106 -3.9397 -3.3219 -2.6578 1.3034 0.4760 -0.5414 3.7595 1.5960 2.5637 -0.6053 2.3684 1.7549 0.4170 -2.6957 -1.5365 0.4829 0.4939 -0.9481 2.3007 -3.1107 -0.7375 -1.8561 1.6532 -0.3327 1.5480 -1.1841 -1.5905 0.6158
4.2491 3.3762 2.7279 3.7406 4.6218 0.6602 -3.6462 0.0829 -3.4537 -3.0204 -1.1929 -5.4636 -2.7416 -3.9284 1.6561 -4.3070 -2.5399 0.3265 0.8610 0.3392 4.9670 0.1385 -1.9362 4.4444 3.8929 1.8994 -3.7260 0.7926 0.5528 -1.3514 -0.8245 -3.2248 -2.4588 -0.0252 2.2053 2.2082 -2.5925 -0.2314 1.2243 2.5079 1.7594 -3.4588 2.2316 2.2888 -2.0720 3.4400 2.1694 0.7324 -1.5231 -1.1836 -3.5001 -1.8932 -1.5907 -1.1952 1.5569 0.7731 1.3063 -0.5004 -1.0936 1.7426 3.3437 3.4517 1.5246 -2.9647 -1.1672 -3.9570 -2.9358 -3.1713 0.3661 0.7147 -0.6702 3.8495 2.0519 1.1559 -1.0809 2.0543 1.7141 0.3315 -1.7892 -2.2170 0.0988 -0.1775 -0.1173 2.7548 -1.3693 -2.1324 -2.3471 0.4450 1.0779 2.0659 -1.7101 -1.0712 1.0775
4.1473 -0.7227 3.3543 5.2721 0.7860 1.7631 0.5438 -3.5542 -0.6705 1.8163 -2.5267 -2.5047 -3.4439 1.5039 -3.0154 -5.0998 -0.2278 -2.3997 -0.7754 0.3851 4.6933 -2.7131 -0.7928 3.7760 3.9437 1.8182 -3.5535 0.7713 1.4668 -1.1664 -2.6474 -2.8123 -1.3097 0.2856 2.4373 2.1800 -2.3193 2.1114 -0.1007 3.5150 0.7945 -2.6704 3.1180 1.4405 -1.3662 3.1207 -0.2683 1.1603 -0.6400 -2.4233 -2.5492 -1.9933 -0.6280 -1.7567 0.7980 0.3239 1.3781 -1.9912 0.1589 1.1128 3.9354 0.3209 2.2868 0.5762 -2.4070 -1.6526 -4.0594 0.7291 -1.8728 -1.3413 -0.2516 3.4429 1.9213 0.7296 -0.7758 2.0381 0.6998 0.7399 -3.0560 -0.0043 -1.0068 -1.4067 0.7469 2.2993 -1.8646 -2.0000 -1.7925 -0.0270 1.2706 1.9504 -2.4241 0.8958 0.0263

>  <OB_ATOM_TYPES> (1apuA1)
C.3 C.3 C.3 C.3 C.3 C.3 C.3 C.3 O.3 O.3 O.2 O.2 O.2 C.3 C.3 C.3 C.3 N.am N.am N.am C.3 C.3 C.3 C.3 C.3 C.3 C.3 C.3 C.2 C.2 C.2

>  <ENSEMBLE_RMSD> (1apuA1)
1.633 1.763 2.030 2.091 2.153 2.153 2.175 2.178 2.213 2.235 2.325 2.380 2.433 2.580 2.641 2.654 2.720 2.727 2.742 2.758 2.765 2.768 2.846 2.878 2.908 2.952 2.952 2.970 2.973 3.010 3.045 3.083 3.087 3.105 3.130 3.152 3.185 3.193 3.255 3.263 3.296 3.300 3.476 3.510 3.530 3.652 3.870 3.898 3.987 4.134

$$$$
