
 OpenBabel03071213D

 16 16  0  0  0  0  0  0  0  0999 V2000
 -134.4660    5.9120   64.2240 C   0  0  0  0  0
 -130.6950    4.7200   61.2130 C   0  0  0  0  0
 -133.1720    5.9910   61.8160 O   0  0  0  0  0
 -129.6360    3.5270   63.4900 O   0  0  0  0  0
 -133.9500    3.3690   69.1550 O   0  0  0  0  0
 -135.2990    5.0850   67.9690 O   0  0  0  0  0
 -135.7780    2.6890   67.6500 O   0  0  0  0  0
 -132.9090    4.5100   66.4700 C   0  0  0  0  0
 -133.9460    3.5870   66.7350 O   0  0  0  0  0
 -131.2610    3.9800   64.8010 C   0  0  0  0  0
 -133.1390    5.2600   64.0280 C   0  0  0  0  0
 -131.3390    4.6810   62.5690 C   0  0  0  0  0
 -132.5540    5.3050   62.7960 C   0  0  0  0  0
 -132.4390    4.5670   65.0620 C   0  0  0  0  0
 -130.7110    4.0400   63.5860 N   0  0  0  0  0
 -134.7940    3.7060   67.9990 P   0  0  0  0  0
  1 11  1  0  0  0
  2 12  1  0  0  0
  3 13  1  0  0  0
  4 15  1  0  0  0
  5 16  1  0  0  0
  6 16  1  0  0  0
  7 16  2  0  0  0
  8  9  1  0  0  0
  8 14  1  0  0  0
  9 16  1  0  0  0
 10 14  1  0  0  0
 10 15  2  0  0  0
 11 13  1  0  0  0
 11 14  2  0  0  0
 12 13  2  0  0  0
 12 15  1  0  0  0
M  END
>  <MOLID> (1aseA1)
1aseA1

>  <SMILES_CANONICAL> (1aseA1)
Cc1c(COP(=O)(O)O)cn(c(c1O)C)O	

>  <FINGERPRINT> (1aseA1)
0000000000000000000000000000001001001000000000000000100000001000011101100000000001000001000000100011000000000100000000100101100000000000000001000001000000100100000000000000000001000000000001000001000000000000010000000000000000000000001000000000000000000000000000000000000000000001000000000000000000000000000001011101000000011000000000000000000000000100010000000000000000001000000000001000000000000000010110000000010000000000001000101000000001100000000000000000001000000000000000000000101000001110001000000001110000000000000000000000000000100000000000100010000000000000000001000000000000100000000000000000000000000000000000100000000000000010010000001000000000100000001000000000110000000001100010000100000000100000100000000000000000000000000000001100000000001000000001000000000000000100001001000000000010000000000000000000000000000000000010100000000000000000010000000000000001000001000000000000000000000000010000000000000000000110000000000000001000000000000000001100000000000000000000000000000010000000000000001000000000100000

>  <MACCS166> (1aseA1)
000000000000100000000001000010000000000000101001010010000000000010000010001101000000000011100110111001000100000110010011110101100110000111111111010111011011111110111000

>  <OB_MW> (1aseA1)
250.048

>  <OB_logP> (1aseA1)
0.9382

>  <OB_PSA> (1aseA1)
121.96

>  <OB_MR> (1aseA1)
55.3748

>  <OB_ATOMIC_CHARGES> (1aseA1)
0.0342208031 0.0571953679 -0.2856052792 -0.1634356916 -0.1145273004 -0.1145273004 -0.2223754493 0.181575664 -0.2653028594 0.1188307496 0.0182675225 0.1185566681 0.2064013168 0.0277099436 -0.1298927281 0.5329085729

>  <MCT_HBD> (1aseA1)
4

>  <MCT_HBA> (1aseA1)
7

>  <ENSEMBLE_TOTAL> (1aseA1)
6

>  <ENSEMBLE_COORDS> (1aseA1)
-1.5855 1.4789 -0.7487 2.1855 0.2869 -3.7597 -0.2915 1.5579 -3.1567 3.2445 -0.9061 -1.4827 -1.0695 -1.0641 4.1823 -2.4185 0.6519 2.9963 -2.8975 -1.7441 2.6773 -0.0285 0.0769 1.4973 -1.0655 -0.8461 1.7623 1.6195 -0.4531 -0.1717 -0.2585 0.8269 -0.9447 1.5415 0.2479 -2.4037 0.3265 0.8719 -2.1767 0.4415 0.1339 0.0893 2.1695 -0.3931 -1.3867 -1.9135 -0.7271 3.0263
-1.4815 1.4571 -0.4394 2.0586 0.4016 -3.8206 -0.3949 1.5869 -3.0507 3.4351 -1.0574 -1.6015 -1.1828 -0.6987 4.2573 -2.7816 0.6600 2.6908 -2.9461 -1.8114 2.9074 0.1252 -0.0642 1.5582 -0.9818 -0.9515 1.6539 1.7349 -0.4880 -0.2850 -0.1944 0.7978 -0.8074 1.5192 0.3010 -2.4279 0.3060 0.9019 -2.1031 0.5368 0.0743 0.1323 2.2411 -0.3855 -1.5388 -1.9938 -0.7239 2.8745
-1.2113 2.3072 -0.7191 1.8345 -0.4041 -3.6218 -0.1810 1.5439 -3.2474 2.7885 -1.6512 -1.0555 -0.7758 -0.9210 3.9941 -3.1861 -1.0390 2.9923 -1.2381 -2.0251 1.8095 -0.0518 0.8973 1.6343 -1.3876 0.4635 1.8416 1.3540 -0.3428 0.0061 -0.1555 1.2634 -0.8760 1.3124 -0.0413 -2.2699 0.3227 0.9265 -2.1403 0.3699 0.6075 0.2341 1.8337 -0.6793 -1.2191 -1.6285 -0.9054 2.6371
-1.7631 1.1196 -0.7717 2.0906 0.0515 -3.7819 -0.5826 0.8594 -3.3370 3.6185 -0.5043 -1.2862 -2.5641 -2.1565 3.0006 -1.2750 -0.3382 4.3641 -2.8519 0.2658 2.5331 -0.0223 0.4524 1.5305 -0.6807 -0.7656 1.8449 1.7701 0.0008 -0.1367 -0.3465 0.6907 -0.9681 1.5104 0.1803 -2.4110 0.1899 0.5818 -2.2482 0.4618 0.3822 0.1230 2.3093 -0.1037 -1.3773 -1.8644 -0.7162 2.9221
-1.6676 1.6764 -0.6813 1.8517 -0.4448 -3.5388 -0.6242 0.8741 -3.1941 3.3219 -0.9433 -1.0027 -1.7767 -1.8322 1.2951 -1.8020 -1.5989 3.8947 -2.6899 0.1920 2.4210 -0.0167 1.0538 1.6732 -0.1989 -0.1056 2.4725 1.6304 0.0421 0.0830 -0.3583 0.9736 -0.8237 1.3390 -0.0427 -2.1939 0.1137 0.6025 -2.0800 0.4167 0.6803 0.2952 2.1031 -0.3273 -1.1342 -1.6422 -0.8002 2.5140
-1.8127 1.7111 -1.3066 2.8364 0.6866 -2.8561 0.4864 2.2591 -2.8764 2.6945 -1.6656 -1.0037 -1.4366 0.4632 4.2162 -2.0075 -1.8975 3.2525 0.2412 -0.8684 2.9613 -1.6374 -0.6674 0.4595 -1.6168 0.1351 1.6315 0.6444 -1.0072 -0.4658 -0.5883 0.8582 -1.2697 1.6460 0.3589 -2.0149 0.5149 1.1660 -2.0617 -0.5211 -0.2559 -0.4381 1.7258 -0.7221 -1.2346 -1.1692 -0.5540 3.0066

>  <OB_ATOM_TYPES> (1aseA1)
C.3 C.3 O.3 O.3 O.3 O.3 O.2 C.3 O.3 C.ar C.ar C.ar C.ar C.ar N.ar P.3

>  <ENSEMBLE_RMSD> (1aseA1)
0.000 0.235 0.913 0.970 1.257 1.450

$$$$
