
 OpenBabel03071213D

 23 24  0  0  0  0  0  0  0  0999 V2000
   23.5320   65.3830   -7.8170 C   0  0  0  0  0
   23.8930   64.9020   -5.5050 C   0  0  0  0  0
   27.4390   64.2050   -5.2340 C   0  0  0  0  0
   27.3990   61.6090  -11.8910 C   0  0  0  0  0
   26.8290   61.3240   -6.2400 C   0  0  0  0  0
   28.6570   62.6070   -6.7370 C   0  0  0  0  0
   22.0780   64.5390  -14.7490 O   0  0  0  0  0
   24.2630   64.4030  -15.0280 O   0  0  0  0  0
   26.6210   63.9680  -13.1550 O   0  0  0  0  0
   23.4560   64.4000  -12.8000 C   0  0  0  0  0
   24.6860   65.1520  -12.4320 C   0  0  0  0  0
   27.3010   62.1280   -9.4520 C   0  0  0  0  0
   25.7490   64.4160   -9.7970 C   0  0  0  0  0
   24.2910   64.4450   -6.8940 C   0  0  0  0  0
   26.5000   63.5520   -6.1160 C   0  0  0  0  0
   25.7730   64.5420   -7.1260 C   0  0  0  0  0
   23.2500   64.4530  -14.2690 C   0  0  0  0  0
   26.9270   62.5030  -10.7570 C   0  0  0  0  0
   25.8390   64.1960  -12.1920 C   0  0  0  0  0
   26.1900   64.0210   -8.5340 C   0  0  0  0  0
   26.1720   63.7000  -10.9170 C   0  0  0  0  0
   26.7680   62.8270   -8.3510 C   0  0  0  0  0
   27.2110   62.6640   -6.9720 C   0  0  0  0  0
  1 14  1  0  0  0
  2 14  1  0  0  0
  3 15  1  0  0  0
  4 18  1  0  0  0
  5 23  1  0  0  0
  6 23  1  0  0  0
  7 17  1  0  0  0
  8 17  2  0  0  0
  9 19  2  0  0  0
 10 11  1  0  0  0
 10 17  1  0  0  0
 11 19  1  0  0  0
 12 18  1  0  0  0
 12 22  2  0  0  0
 13 20  2  0  0  0
 13 21  1  0  0  0
 14 16  1  0  0  0
 15 16  1  0  0  0
 15 23  1  0  0  0
 16 20  1  0  0  0
 18 21  2  0  0  0
 19 21  1  0  0  0
 20 22  1  0  0  0
 22 23  1  0  0  0
M  END
>  <MOLID> (1c12B1)
1c12B1

>  <SMILES_CANONICAL> (1c12B1)
OC(=O)CCC(=O)c1cc2[C@@H](C(C)C)[C@@H](C(c2cc1C)(C)C)C	

>  <FINGERPRINT> (1c12B1)
0000000000000101000000000000000000000001000000000000100000000000000000000000000000000001000000100100000000000001000000100000000000000000000010000000000000000001000000000000000010000000000000100000000000000000000000000000000000000000000000000000000000000001000000000000000000001001000000000000000000001000000010100100000000001000000100000000000000000000010000000000000010011000000000000000010000000000100000000000000000000000001000000001000000000000000000000000000000000000001000000000100000001010000000000000100000000000000000000000000000000000000000100000000000000000000000000000000001000000001000000000000000000000000000000000000000000001000000000000000000000001000000001000100000000010000010100000000000000001000000000100000000000000000000000100000000000000000101000000000000000000000000000000000010000000000000000000000000000001000000000000000000000000000000000000000010000000000000000000000000000000000000000000000000000010000000010000001000000000000000101000000000000000000000000000000000000000010000000000010000000000

>  <MACCS166> (1c12B1)
000000000000000000000000010000000000000000000000010000000000000001000000010100000000000001000001001000011001000100000100001000000011000100111001011011010110101100111000

>  <OB_MW> (1c12B1)
316.204

>  <OB_logP> (1c12B1)
4.7094

>  <OB_PSA> (1c12B1)
54.37

>  <OB_MR> (1c12B1)
94.3383

>  <OB_ATOMIC_CHARGES> (1c12B1)
0.0003343032 0.0003343032 0.0006584818 0.0311092486 0.0043689168 0.0043689168 -0.2456402052 -0.2456402052 -0.2913351033 0.1221536147 0.0809375077 -0.0087640821 -0.0020613108 0.0040372462 0.0077572976 0.022306886 0.3653149877 -0.0194231692 0.173294336 -0.0263929849 0.0304343898 -0.027059099 0.0189057236

>  <MCT_HBD> (1c12B1)
1

>  <MCT_HBA> (1c12B1)
3

>  <ENSEMBLE_TOTAL> (1c12B1)
50

>  <ENSEMBLE_COORDS> (1c12B1)
-2.1560 1.6465 1.8771 -1.7950 1.1655 4.1891 1.7510 0.4685 4.4601 1.7110 -2.1275 -2.1969 1.1410 -2.4125 3.4541 2.9690 -1.1295 2.9571 -3.6100 0.8025 -5.0549 -1.4250 0.6665 -5.3339 0.9330 0.2315 -3.4609 -2.2320 0.6635 -3.1059 -1.0020 1.4155 -2.7379 1.6130 -1.6085 0.2421 0.0610 0.6795 -0.1029 -1.3970 0.7085 2.8001 0.8120 -0.1845 3.5781 0.0850 0.8055 2.5681 -2.4380 0.7165 -4.5749 1.2390 -1.2335 -1.0629 0.1510 0.4595 -2.4979 0.5020 0.2845 1.1601 0.4840 -0.0365 -1.2229 1.0800 -0.9095 1.3431 1.5230 -1.0725 2.7221
-2.5048 1.3424 1.9067 -1.8261 0.8423 4.2003 1.5408 1.3384 4.1281 1.7386 -2.5611 -1.9649 1.6360 -2.1344 3.5084 3.2418 -0.4250 2.7663 -3.2773 1.8332 -4.8162 -1.0128 1.7982 -5.0900 0.6759 -0.2178 -3.5339 -1.9947 1.2051 -2.9629 -1.6168 -0.2577 -2.8605 1.7354 -1.7528 0.3758 -0.1769 0.2390 -0.1545 -1.5596 0.5147 2.7482 0.8516 0.2089 3.3962 -0.1107 0.7646 2.3435 -2.0059 1.6264 -4.3991 1.1966 -1.6012 -0.9683 -0.1351 -0.3605 -2.6224 0.2380 0.0098 1.1031 0.3056 -0.6211 -1.2291 1.2794 -0.9649 1.3643 1.7811 -0.8266 2.7610
-1.9040 2.1492 2.1518 -1.5899 1.1784 4.3702 1.6837 0.4553 4.5630 1.3759 -1.9113 -2.3046 0.8923 -2.6469 3.1582 2.9696 -1.3579 2.8555 -1.5272 0.3485 -5.6750 -3.6342 0.6064 -4.8348 1.1352 1.1155 -3.2552 -1.8259 -0.0785 -3.3959 -1.2007 1.1258 -2.7318 1.3833 -1.6728 0.1723 0.2338 0.8917 0.0611 -1.3138 0.9732 2.8974 0.7989 -0.2114 3.5353 0.1766 0.8303 2.6058 -2.4509 0.3429 -4.6844 1.0639 -1.0718 -1.1183 0.2449 0.8182 -2.4643 0.4091 0.2741 1.2406 0.5456 0.1732 -1.1647 1.0722 -1.0151 1.3045 1.4616 -1.3170 2.7135
-1.9187 2.1791 2.3727 -1.4314 1.2097 4.5602 1.8792 0.7249 4.4416 1.4459 -2.0706 -2.1607 1.0894 -2.5405 3.3845 3.0937 -1.2193 2.8408 -3.3279 0.2219 -5.3311 -1.9803 2.0602 -5.2166 0.4761 1.4152 -2.8564 -1.1295 -0.1106 -4.6003 -1.2560 -0.2436 -3.0994 1.4394 -1.7296 0.3015 -0.0967 0.6185 0.1109 -1.2904 0.9927 3.0702 0.9321 -0.0875 3.5880 0.1598 0.8236 2.6344 -2.1623 0.8611 -5.0724 0.9998 -1.2528 -1.0028 -0.1020 0.4295 -2.4083 0.2596 0.1355 1.3131 0.2669 -0.1240 -1.0867 1.0742 -1.0629 1.4116 1.5792 -1.2304 2.8052
-1.7117 2.3714 2.1806 -1.5721 1.2171 4.3309 1.7215 0.3996 4.5535 1.4761 -1.9392 -2.2689 0.6345 -2.6424 3.1343 2.8451 -1.5787 2.9263 -3.1590 -0.6281 -5.1511 -2.4529 1.5415 -5.1962 0.7063 1.9819 -2.6660 -1.8501 0.1016 -3.3572 -0.3561 0.0400 -3.5616 1.3481 -1.7037 0.1901 0.2504 0.8800 0.0443 -1.2512 1.1003 2.8580 0.7835 -0.2119 3.5384 0.2312 0.8597 2.5972 -2.4932 0.4443 -4.6608 1.0918 -1.0936 -1.1083 0.3362 0.8244 -2.4822 0.4468 0.2888 1.2345 0.5651 0.1480 -1.1779 1.0524 -1.0260 1.3125 1.3571 -1.3750 2.7295
-2.4074 1.5038 1.8926 -1.8894 0.8471 4.1870 1.4938 1.1662 4.3351 1.8682 -2.4147 -1.9437 1.4535 -2.2698 3.5383 3.1842 -0.6092 2.9809 -2.2030 2.4909 -4.0255 -3.4539 1.1960 -5.4218 1.0590 0.1921 -3.3794 -1.4765 0.2800 -4.4023 -1.3032 0.0194 -2.9218 1.7599 -1.7362 0.4396 -0.0203 0.3772 -0.0901 -1.5556 0.5811 2.7361 0.7937 0.1131 3.5068 -0.0728 0.7738 2.4315 -2.5038 1.3359 -4.6650 1.3112 -1.4865 -0.9246 0.1641 -0.0711 -2.5800 0.3152 0.0683 1.1738 0.4864 -0.4482 -1.1800 1.2881 -0.9741 1.4415 1.7084 -0.9351 2.8710
-1.7643 2.5086 2.0015 -1.9808 0.9541 3.8776 1.4093 0.3475 4.3919 1.5193 -1.8386 -2.4915 0.4141 -2.6734 2.8213 2.6299 -1.6047 2.8125 -2.2738 -1.2236 -3.2194 -2.7485 0.4128 -4.7396 1.6148 1.0391 -3.4563 -1.8645 0.9747 -2.5624 -0.6268 1.7141 -3.0113 1.3263 -1.6463 -0.0268 0.4010 1.0073 -0.1557 -1.4397 1.1092 2.4743 0.5257 -0.2504 3.3198 0.0594 0.8539 2.3690 -2.3371 0.0610 -3.6450 1.1761 -0.9903 -1.3196 0.6567 0.9912 -2.6865 0.4152 0.3447 1.0130 0.7640 0.2948 -1.3764 0.9647 -0.9949 1.0926 1.1588 -1.3909 2.5170
-2.5394 1.2624 2.2103 -1.7864 0.5588 4.4248 1.5220 1.2326 4.2839 1.9909 -1.9993 -2.1205 1.7547 -2.1966 3.3959 3.3069 -0.3678 2.8499 -2.1493 2.5909 -5.4156 -2.3470 0.3199 -5.3477 -1.0917 -1.3327 -2.9016 -1.6440 1.5447 -3.3858 -0.2842 0.9095 -3.1955 1.9390 -1.4313 0.2970 -0.3346 0.2033 0.0059 -1.5678 0.3627 2.9413 0.8838 0.1063 3.5034 -0.1379 0.6612 2.5096 -2.0718 1.3820 -4.8107 1.3285 -1.2601 -1.0141 -0.4473 -0.3880 -2.4547 0.2040 -0.0066 1.2193 0.2336 -0.4833 -1.1450 1.3754 -0.8505 1.3710 1.8626 -0.8180 2.7790
-1.4437 2.0614 4.0540 -2.0551 -0.0812 2.9858 1.8408 0.7486 4.4099 1.2199 -2.1168 -2.1930 0.7746 -2.4459 3.2681 2.9387 -1.3321 2.9016 -1.9130 -0.3945 -5.5960 -3.5845 0.4935 -4.3205 1.1734 0.7171 -3.3643 -1.3649 1.4420 -4.2642 -1.1077 1.2410 -2.7895 1.2862 -1.6982 0.2510 0.2076 0.8912 -0.0168 -1.2606 1.1963 2.8310 0.8620 0.0104 3.5261 0.2145 0.9760 2.5357 -2.4233 0.4822 -4.6989 0.9490 -1.1816 -1.0696 0.2611 0.6639 -2.5443 0.4427 0.3672 1.1972 0.4735 0.0757 -1.1976 1.0710 -0.9323 1.3347 1.4378 -1.1839 2.7597
-2.5409 1.3412 1.7904 -1.8719 0.9545 4.1085 2.0434 1.1030 3.4254 2.2514 -1.9241 -2.1323 0.1308 -2.1912 3.2406 2.5262 -1.6913 3.1646 -3.1708 1.4365 -2.8124 -3.2503 -0.1619 -4.4397 1.5729 1.3629 -3.0947 -1.2201 1.0839 -4.0482 -0.3219 -0.0335 -3.5715 1.6791 -1.6311 0.2669 0.1869 0.7084 -0.2339 -1.5948 0.5606 2.6745 0.8311 0.2008 3.2900 -0.1480 0.8391 2.2917 -2.6416 0.6902 -3.8111 1.5456 -1.1294 -1.0931 0.7602 0.5330 -2.6985 0.2271 0.1766 1.0001 0.8320 -0.0086 -1.3247 1.0140 -1.0238 1.2647 1.1596 -1.1956 2.7426
-1.6839 2.3836 2.2807 -1.5774 1.0953 4.3578 1.7024 0.1965 4.5674 1.4342 -1.6977 -2.3995 0.5596 -2.7087 2.9534 2.7952 -1.6886 2.7979 -2.2499 -0.3212 -5.7137 -3.4504 -0.4742 -3.7802 0.7374 2.2905 -2.5259 -1.5983 1.0599 -3.9349 -0.2842 0.4052 -3.5875 1.3038 -1.6064 0.0658 0.2794 1.0089 0.0804 -1.2377 1.0717 2.8855 0.7664 -0.3130 3.4971 0.2449 0.8304 2.6259 -2.5349 0.0064 -4.4306 1.0682 -0.9100 -1.1928 0.3720 1.1200 -2.4408 0.4538 0.3393 1.2315 0.5736 0.3474 -1.1859 1.0138 -0.9970 1.2282 1.3122 -1.4382 2.6202
-2.4907 1.1928 2.2983 -1.5960 0.9450 4.5556 1.7632 1.1641 4.2920 1.4696 -2.2804 -2.0647 1.7102 -2.2504 3.4409 3.3147 -0.5372 2.6950 -2.3542 0.3475 -5.5982 -2.3435 2.5452 -4.9861 -1.2879 -1.1061 -2.8815 -0.4598 1.1194 -4.4669 -0.5128 1.1712 -2.9568 1.6368 -1.6443 0.3276 -0.3259 0.3558 0.0831 -1.4403 0.4842 3.1233 0.9952 0.1101 3.5295 -0.0339 0.7476 2.5924 -1.8115 1.4466 -5.0211 1.0090 -1.3958 -0.9627 -0.6155 -0.2133 -2.3732 0.2011 0.0625 1.2845 0.0789 -0.4251 -1.0796 1.2466 -0.9368 1.4024 1.8465 -0.9024 2.7659
-2.0748 -0.6803 2.6228 -2.3842 1.6379 1.7968 1.4823 1.3718 4.1868 1.7956 -2.6452 -1.8455 1.3895 -2.1319 3.5722 3.1760 -0.5285 3.0298 -3.5814 2.2020 -3.8434 -1.8962 1.6793 -5.2911 0.9832 -0.2187 -3.5275 -1.6106 1.3692 -2.9137 -1.3253 -0.1173 -2.9138 1.7670 -1.7704 0.4778 0.0427 0.3498 -0.1932 -1.5337 0.7303 2.6498 0.7842 0.2625 3.4343 -0.0575 0.8483 2.3049 -2.3478 1.7400 -4.1580 1.3112 -1.6067 -0.8989 0.1403 -0.3069 -2.6386 0.3788 0.1180 1.0847 0.5218 -0.5612 -1.2257 1.3388 -0.9136 1.4218 1.7000 -0.8285 2.8678
-1.8861 2.3350 1.7783 -1.8585 1.2027 3.9422 1.4370 0.4944 4.3863 1.7779 -1.8950 -2.4027 0.5534 -2.6030 2.9333 2.7345 -1.4630 2.8733 -2.6955 0.9038 -4.6370 -3.1816 0.4484 -2.4558 0.8869 1.9916 -2.8646 -1.3384 -0.6638 -3.5247 -0.0498 0.0455 -3.8690 1.4586 -1.6533 0.0394 0.2536 0.8722 -0.2087 -1.4389 1.0803 2.4948 0.5857 -0.1665 3.3263 0.0634 0.8757 2.3358 -2.4892 0.2870 -3.4500 1.2720 -1.0625 -1.2802 0.5343 0.8222 -2.7173 0.3904 0.2994 0.9981 0.6898 0.1502 -1.3993 1.0427 -0.9881 1.1312 1.2579 -1.3132 2.5701
-1.1452 2.4146 3.9069 -2.1623 0.4858 2.7380 1.7117 0.4503 4.4266 1.6090 -1.9214 -2.3125 0.1754 -2.4596 3.0088 2.5419 -1.7928 2.9866 -2.8357 -0.7894 -5.0194 -3.2207 1.3673 -4.3801 1.1993 1.8916 -2.8667 -1.6859 -0.0062 -3.1350 -0.2797 0.1881 -3.6513 1.3453 -1.6593 0.1383 0.3648 0.9701 -0.0999 -1.0911 1.5493 2.6720 0.6942 -0.0877 3.4461 0.3062 1.0017 2.4495 -2.6506 0.2973 -4.2324 1.1968 -1.0534 -1.1785 0.5887 0.8542 -2.6182 0.4960 0.3942 1.1062 0.7150 0.2027 -1.2899 0.9941 -0.9622 1.2330 1.1328 -1.3353 2.6720
-2.3934 0.1109 2.5330 -1.6744 2.4258 1.9845 0.8789 0.3084 4.8188 1.8688 -2.3539 -2.0590 1.9536 -2.4055 3.3909 3.0395 -0.2312 2.9557 -2.1308 1.9435 -5.2821 -3.8574 0.8733 -4.2422 1.2180 0.6305 -3.2074 -1.7682 1.2228 -3.0860 -1.0575 -0.1106 -3.1444 1.7143 -1.8278 0.3719 0.0104 0.3813 -0.0858 -1.3368 1.1687 2.7450 0.5662 -0.3219 3.4782 0.0792 0.7112 2.4638 -2.7114 1.3021 -4.2404 1.3054 -1.4871 -0.9877 0.3171 0.0835 -2.5786 0.3674 0.0381 1.1628 0.5320 -0.4035 -1.1994 1.3273 -1.0368 1.3878 1.7516 -1.0217 2.8205
-1.5996 2.2142 3.7089 -2.2693 0.0641 2.6859 1.5110 0.7282 4.3717 1.8577 -1.9622 -2.2540 0.5232 -2.4501 3.0990 2.7338 -1.3759 2.9999 -3.1495 1.3584 -3.2512 -3.1019 -0.6815 -4.2742 1.1800 1.7200 -2.9650 -1.1982 0.7996 -4.4001 -0.1930 -0.0993 -3.7225 1.5007 -1.6328 0.1747 0.2023 0.8400 -0.1997 -1.3932 1.2865 2.5368 0.6175 -0.0016 3.3949 0.0789 0.9691 2.3464 -2.5694 0.3786 -3.9841 1.3026 -1.1098 -1.1698 0.5961 0.6725 -2.7012 0.3725 0.3338 1.0335 0.6806 0.0752 -1.3463 1.0542 -0.9319 1.2310 1.2630 -1.1951 2.6857
-2.2676 1.4713 3.0665 -0.9386 0.9276 5.0432 2.5716 1.0410 3.1608 1.1746 -1.7126 -2.2408 0.5821 -2.1985 3.5335 2.8619 -1.7687 2.7551 -0.7405 1.1770 -5.8269 -2.8546 0.3221 -5.8789 0.2919 1.7046 -2.7174 -1.2858 -0.4158 -4.2021 -1.6441 0.3065 -2.9219 1.2217 -1.5698 0.2364 -0.3142 0.7901 0.2690 -1.1385 0.6079 3.5791 1.3517 0.1707 3.4113 0.1308 0.8522 2.7751 -1.7454 0.3899 -5.3738 0.7384 -0.9973 -1.0132 -0.3824 0.7856 -2.2604 0.0702 0.2126 1.4202 -0.0085 0.1272 -0.9900 0.8753 -1.0024 1.4058 1.4500 -1.2213 2.7694
-2.7908 0.3100 2.3175 -1.6500 0.7547 4.4342 1.8058 1.8779 2.7734 2.0548 -2.3193 -1.9618 1.1305 -1.7536 3.7231 3.1651 -0.6218 2.9608 -2.8396 1.1108 -4.7526 -1.5092 2.9480 -5.0084 -0.9349 -1.6159 -3.0636 -1.2661 1.5306 -3.0737 -0.0906 0.6117 -3.3241 1.8671 -1.5659 0.4000 -0.4095 0.0021 -0.1413 -1.4980 0.1075 3.0759 0.9732 0.6609 3.1321 -0.3227 0.6936 2.3071 -1.8487 1.9563 -4.3810 1.3286 -1.5041 -0.9535 -0.3162 -0.6733 -2.5781 0.0313 -0.1455 1.1180 0.2426 -0.7450 -1.2076 1.2165 -0.9472 1.4010 1.6608 -0.6726 2.8024
-2.1827 0.2714 2.4711 -1.4311 2.6357 2.4682 1.6960 0.1041 4.5369 1.4415 -1.6317 -2.4543 0.3297 -2.6973 2.8168 2.6526 -1.8859 2.8166 -2.5368 -0.2509 -5.2030 -3.2754 -0.5612 -3.0670 1.1361 2.3041 -2.5560 -1.6536 1.1552 -3.5451 -0.2356 0.6400 -3.5837 1.2892 -1.5876 0.0148 0.3651 1.0706 0.0640 -1.1240 1.2388 2.9471 0.7220 -0.3501 3.4748 0.2979 0.8290 2.6044 -2.5720 0.0232 -3.8768 1.1011 -0.8569 -1.2325 0.5621 1.2227 -2.4533 0.5204 0.3775 1.2035 0.6621 0.4204 -1.2072 1.0247 -0.9813 1.1848 1.2109 -1.4896 2.5759
-1.4821 2.5937 3.1088 -2.3971 0.5370 2.0772 0.2896 0.0625 4.5403 1.7635 -2.1387 -2.3898 1.0369 -2.6339 2.9117 2.6613 -0.7835 3.0902 -3.5919 0.8220 -3.8769 -2.9590 0.1533 -1.7886 1.8742 0.7349 -3.5628 -1.4055 0.0305 -3.6301 -0.4617 1.1703 -3.3262 1.5374 -1.7077 0.0455 0.4901 0.8782 -0.3723 -1.2656 1.5385 2.0541 0.1720 -0.3027 3.0790 0.1194 0.9247 2.1718 -2.7122 0.3322 -2.9709 1.3757 -1.1938 -1.3093 0.8647 0.6343 -2.8699 0.6245 0.3874 0.8704 0.9217 0.0631 -1.5014 1.2436 -0.9142 1.0902 1.3004 -1.1882 2.5587
-2.1379 1.6964 3.5370 -2.0003 -0.7214 3.0315 1.3800 1.7241 3.8705 1.9770 -2.6040 -1.8382 1.5248 -1.8362 3.5880 3.1701 -0.1615 2.8558 -3.2868 1.7135 -3.8638 -1.5267 3.0106 -4.5160 -0.6762 -1.8186 -3.1468 -1.2934 0.6103 -4.3773 -0.1818 0.5299 -3.3550 1.8555 -1.6223 0.4354 -0.2771 0.0840 -0.2593 -1.6794 0.6686 2.5323 0.7369 0.4843 3.2914 -0.2201 0.8715 2.1661 -2.0060 1.9180 -4.2547 1.3269 -1.6292 -0.9230 -0.2265 -0.7953 -2.6386 0.2014 0.0579 0.9953 0.3146 -0.7999 -1.2564 1.3097 -0.8060 1.3536 1.7153 -0.5747 2.7721
-2.2357 1.4980 2.8058 -1.1474 0.9944 4.9318 2.1830 0.9247 4.3058 0.7612 -2.1029 -2.1248 1.6880 -2.4019 3.2770 3.3641 -0.8016 2.4421 -1.3339 0.3712 -6.7951 -1.5981 2.1304 -5.3682 -2.2886 0.4537 -1.9434 -1.2172 -0.1032 -4.5132 -0.3736 0.4600 -3.3904 1.3073 -1.6004 0.2369 -0.3920 0.6355 0.3193 -1.1842 0.6329 3.4636 1.2304 0.0048 3.5785 0.1810 0.8046 2.8027 -1.3973 0.9423 -5.5681 0.5512 -1.2182 -0.9491 -1.0836 0.2540 -2.0801 0.2102 0.1978 1.4376 -0.2455 -0.1286 -0.9154 1.1369 -0.9159 1.3813 1.8839 -1.0315 2.6653
-2.3166 1.3960 3.0060 -1.2198 0.5134 5.0007 2.0801 0.9709 4.3189 0.8438 -1.9279 -2.2040 1.8701 -2.3601 3.1598 3.3983 -0.5838 2.4061 -0.8994 1.6235 -6.5418 -1.6255 -0.4199 -5.8336 -2.3626 0.1456 -1.9968 -1.3957 1.4095 -4.2691 -0.4300 0.7520 -3.3101 1.4030 -1.4565 0.1659 -0.5021 0.6044 0.3580 -1.2673 0.4213 3.4915 1.2072 -0.0173 3.5799 0.0826 0.7138 2.8439 -1.3167 0.7394 -5.6040 0.6006 -1.0968 -0.9958 -1.1426 0.2660 -2.0720 0.1499 0.1743 1.4524 -0.2827 -0.0795 -0.9121 1.1821 -0.8392 1.3397 1.9433 -0.9491 2.6166
-2.6373 1.3768 1.6568 -2.0147 0.5907 3.8906 1.2933 1.5523 3.8739 1.9800 -2.6347 -1.9809 1.5704 -1.9361 3.4586 3.1350 -0.1939 2.6998 -1.0198 2.6540 -3.6490 -2.9970 2.0550 -2.6795 0.8399 -0.5190 -3.7198 -1.8076 0.5032 -4.1018 -1.4816 -0.5897 -3.1075 1.7925 -1.7340 0.3203 -0.2011 0.1174 -0.4032 -1.7048 0.4627 2.4165 0.6956 0.3526 3.1783 -0.2587 0.7840 2.0659 -2.0336 1.7955 -3.3832 1.3186 -1.6777 -1.0549 -0.0021 -0.6161 -2.8316 0.1818 -0.0077 0.8791 0.3883 -0.7644 -1.4067 1.2659 -0.9034 1.2357 1.6970 -0.6674 2.6428
-1.6073 2.6088 2.1201 -1.5909 1.3479 4.2068 1.4476 -0.0936 4.3370 1.4630 -1.3330 -2.7202 0.0302 -2.7384 2.4458 2.3718 -1.9845 2.5044 -2.4964 -0.8977 -2.1735 -1.7819 -1.4922 -4.2570 1.0343 2.6377 -2.5754 -1.6571 0.8125 -3.5247 -0.1789 0.9780 -3.7886 1.1305 -1.4685 -0.2725 0.2840 1.2024 -0.0788 -1.3163 1.2517 2.7224 0.4759 -0.4384 3.2310 0.1175 0.8195 2.4365 -1.9673 -0.6467 -3.3954 1.0508 -0.6425 -1.4700 0.5328 1.5153 -2.5759 0.3134 0.4185 1.0119 0.6307 0.6377 -1.3781 0.7724 -0.9540 0.9170 0.9412 -1.5406 2.2772
-0.6908 2.2078 4.6059 -1.7179 0.1102 3.7885 2.3911 0.3586 4.2395 0.2860 -1.6095 -2.3510 0.7298 -2.5565 3.0571 2.9051 -1.6453 2.3557 -2.5002 -0.7255 -5.6867 -0.2193 -0.7340 -5.7167 -0.1864 2.3660 -2.3778 -1.4094 0.9787 -4.5066 -1.6745 0.6089 -3.0627 0.7870 -1.5021 0.0666 -0.1692 1.1330 0.3114 -0.8792 1.3093 3.4094 1.1745 -0.1718 3.5171 0.4571 0.9568 2.7798 -1.2785 -0.2526 -5.3436 0.2527 -0.8091 -1.0994 -0.6311 1.2380 -2.1759 0.3046 0.4733 1.3812 -0.1976 0.4592 -0.9849 0.8290 -0.8717 1.2528 1.4370 -1.3216 2.5403
-2.6314 1.0731 2.8573 -1.3960 0.2512 4.8037 1.6965 1.5422 4.0103 1.2937 -2.2173 -2.1324 2.1705 -1.8902 3.3102 3.3371 0.0353 2.3141 -1.4155 2.8068 -5.0624 -1.3654 0.7937 -6.1339 -1.6940 -1.5634 -2.6975 -0.3720 1.0238 -3.9498 -1.3562 0.8012 -2.8251 1.6213 -1.4552 0.2053 -0.7280 0.0949 0.1831 -1.4671 0.2138 3.2940 1.0561 0.3076 3.4196 -0.1870 0.6787 2.6110 -1.1089 1.4913 -5.1642 0.8000 -1.3959 -0.9961 -1.1510 -0.5644 -2.2338 0.0015 -0.0229 1.3063 -0.3149 -0.6356 -1.0098 1.2327 -0.7912 1.3081 1.9779 -0.5772 2.5818
-2.0642 1.7040 3.2705 -0.7711 0.7305 5.1037 2.6842 0.7485 3.0869 0.7866 -1.4146 -2.4418 0.3620 -2.2815 3.2891 2.6542 -2.0390 2.4600 -0.0212 0.0151 -5.4665 -1.9665 -1.1746 -5.3730 0.0657 2.1839 -2.5959 -1.8123 0.9996 -4.3340 -1.8138 0.6933 -2.8534 0.9761 -1.4552 0.0310 -0.2923 1.0458 0.3110 -1.0431 0.6447 3.6184 1.3901 -0.0087 3.3250 0.2241 0.8435 2.7992 -1.3087 -0.1845 -5.0949 0.5081 -0.7401 -1.1474 -0.5527 1.1994 -2.2034 0.0605 0.3370 1.3965 -0.1058 0.4524 -1.0064 0.7260 -0.9548 1.2534 1.3139 -1.3448 2.5718
-1.1030 2.0169 4.5318 -1.7942 -0.1692 3.6055 2.2574 0.9243 4.2056 0.6263 -2.0426 -2.1394 1.1790 -2.3514 3.3076 3.1649 -1.1237 2.5335 -0.5411 1.4157 -5.6630 -2.5147 0.3416 -6.0614 -0.5611 1.7982 -2.5386 -0.9702 -0.5169 -4.4173 -1.6659 -0.2454 -3.0989 1.0655 -1.6034 0.2462 -0.3333 0.8372 0.2297 -1.1229 1.1499 3.2972 1.1710 0.1071 3.5450 0.2691 1.0090 2.7045 -1.4585 0.4401 -5.4566 0.4293 -1.1357 -0.9794 -0.7800 0.6236 -2.2478 0.2507 0.3891 1.3525 -0.2351 0.0410 -0.9922 1.0082 -0.8461 1.3544 1.6587 -1.0594 2.6809
-2.3288 0.0918 1.9205 -1.7925 2.5081 1.7416 1.3188 0.4274 4.3654 1.5336 -1.9792 -2.4661 0.2887 -2.6012 2.8060 2.5410 -1.6198 2.9200 -2.3766 -0.9685 -2.5762 -3.2964 1.1009 -2.2962 1.7991 0.8943 -3.5228 -1.4025 0.7868 -3.7672 -0.4115 1.6771 -3.0563 1.3519 -1.6892 -0.0079 0.5150 0.9878 -0.2436 -1.4174 1.2004 2.3932 0.4661 -0.1770 3.2735 0.0682 0.8998 2.2666 -2.4615 0.3649 -2.7989 1.2456 -1.0704 -1.3252 0.8418 0.9033 -2.7539 0.5036 0.3683 0.9467 0.8956 0.2300 -1.4301 1.0164 -0.9801 1.0843 1.1021 -1.3554 2.5267
-2.7914 0.7738 1.3918 -2.1944 0.8213 3.7557 1.0905 1.5240 3.8564 2.2511 -2.3481 -2.1194 1.7005 -1.9226 3.3866 3.0996 -0.0245 2.6800 -2.3377 2.2871 -4.3219 -2.7751 1.5054 -2.2243 -0.7284 -1.6794 -3.3117 -0.4952 1.7680 -2.9678 0.1013 0.5421 -3.6259 1.9879 -1.5445 0.2206 -0.2980 -0.0431 -0.4111 -1.7963 0.2597 2.4095 0.6082 0.2770 3.1505 -0.3696 0.6440 2.0335 -1.9846 1.8074 -3.1069 1.4911 -1.5156 -1.1514 -0.1260 -0.7207 -2.8348 0.1247 -0.1300 0.8587 0.4080 -0.7704 -1.4525 1.3211 -0.8818 1.1840 1.7128 -0.6289 2.6002
-2.8681 0.1333 2.2340 -1.7472 0.7043 4.3313 1.6058 2.0285 2.5908 2.2421 -2.2432 -1.9606 1.1850 -1.5984 3.7112 3.1439 -0.3497 2.9296 -2.3296 2.6035 -2.9659 -1.4028 2.7772 -5.0436 -0.8395 -2.0009 -3.0206 -1.6008 0.6251 -3.9754 -0.2273 0.2836 -3.4431 1.9581 -1.4511 0.3781 -0.4727 -0.1575 -0.2151 -1.5621 0.0302 2.9908 0.8636 0.7748 3.0170 -0.4317 0.6674 2.1959 -1.7369 2.1083 -4.0787 1.4191 -1.4958 -0.9745 -0.3255 -0.9643 -2.6108 -0.0127 -0.1990 1.0465 0.2481 -0.8840 -1.2490 1.2419 -0.8743 1.3588 1.6493 -0.5181 2.7534
-2.5313 0.6696 3.2485 -0.9143 0.7158 5.0813 2.2063 1.6777 2.7988 0.9950 -1.9835 -2.2112 1.3210 -1.9517 3.5668 3.2751 -0.9460 2.4835 -1.4407 0.2307 -5.9301 -0.8558 2.4279 -5.7345 -2.1880 -0.9261 -2.4646 -0.1509 0.8261 -4.0746 -1.0323 1.1303 -2.8861 1.3807 -1.4740 0.1900 -0.7942 0.3152 0.2986 -1.1501 0.2247 3.6699 1.3299 0.5166 3.2274 -0.0977 0.7605 2.7102 -0.8457 1.2808 -5.3161 0.5723 -1.2355 -0.9984 -1.3010 -0.1430 -2.1386 -0.1042 0.0131 1.4110 -0.4703 -0.3818 -0.9377 1.0219 -0.9130 1.3581 1.7744 -0.8346 2.6479
-1.7201 -0.8790 3.5342 -2.3528 1.4673 3.0357 2.0366 1.3561 4.0769 0.9547 -2.1028 -2.1630 1.9960 -2.1104 3.2385 3.4421 -0.3323 2.3464 -1.1208 2.4909 -5.6504 -1.6813 0.2784 -5.6550 -2.0478 -1.0319 -2.4901 -0.2896 1.1762 -3.9026 -1.2155 1.2038 -2.7091 1.4888 -1.4508 0.1754 -0.6747 0.3488 0.3087 -1.2467 0.5552 3.5044 1.2271 0.2226 3.4902 0.0341 0.7773 2.7190 -1.1130 1.2337 -5.1478 0.6201 -1.2652 -0.9813 -1.2757 -0.1647 -2.0920 0.1016 0.1299 1.3814 -0.4029 -0.3883 -0.9167 1.2352 -0.7720 1.3087 2.0045 -0.7426 2.5885
-2.7475 0.8814 2.3888 -1.6228 0.5194 4.5270 1.5079 1.6452 3.9081 1.4366 -2.4819 -2.0701 2.1798 -1.7558 3.2947 3.2873 0.2047 2.2986 -1.6201 2.6263 -3.4419 -0.4307 2.3928 -5.3763 -2.0977 -1.4836 -2.3653 -1.4993 0.4829 -4.3640 -0.4305 -0.2579 -3.5958 1.7114 -1.4970 0.1919 -0.6612 0.0058 -0.0212 -1.5535 0.2256 3.0449 0.9463 0.3831 3.2945 -0.2555 0.7079 2.4050 -1.1022 1.9178 -4.4734 0.9173 -1.5590 -1.0269 -1.0209 -0.8941 -2.3665 0.0263 -0.0255 1.1341 -0.2007 -0.8115 -1.1362 1.2783 -0.7540 1.2253 1.9515 -0.4726 2.5245
-2.5601 0.3721 3.1736 -1.0092 0.7119 5.0330 2.0762 1.8486 2.7568 1.2014 -2.1456 -2.1038 1.5020 -1.8154 3.6495 3.3716 -0.6799 2.5470 -0.1618 1.3291 -6.1899 -1.7640 2.6702 -5.2720 -2.0858 -1.2919 -2.3356 -1.4304 0.4238 -4.4496 -0.9535 0.7177 -3.0454 1.5494 -1.4673 0.2625 -0.7324 0.1855 0.2632 -1.1452 0.1227 3.6466 1.2985 0.6317 3.2229 -0.1373 0.7336 2.6824 -1.1581 1.6111 -5.3160 0.7415 -1.3396 -0.9432 -1.2051 -0.4593 -2.1411 -0.0544 -0.0402 1.4015 -0.3453 -0.5410 -0.9383 1.1369 -0.8829 1.4013 1.8650 -0.6950 2.6947
-0.9268 1.7611 4.8067 -1.6633 -0.3373 3.7282 2.4159 0.6827 4.1673 0.0645 -1.6910 -2.2625 1.2787 -2.4643 2.9561 3.2113 -1.1358 2.2035 -0.8377 0.6391 -6.6035 -0.4387 -1.2251 -5.3515 -2.4475 1.3199 -1.7526 -1.6184 0.6573 -4.4026 -0.6552 1.1390 -3.3391 0.9382 -1.3817 0.0297 -0.4004 1.0699 0.3747 -1.0150 1.0097 3.5013 1.2856 -0.0542 3.4862 0.3403 0.9408 2.8158 -0.8829 -0.0931 -5.4649 0.1520 -0.8204 -1.0619 -1.2965 0.9584 -1.9880 0.2444 0.4909 1.4006 -0.4516 0.3785 -0.9115 0.9849 -0.7403 1.2101 1.7183 -1.1043 2.4578
-1.6748 -0.6846 3.6778 -2.2298 1.6695 3.1248 2.2023 1.3944 3.8056 0.5277 -2.2437 -2.1917 1.9978 -2.0911 3.1212 3.4002 -0.3962 2.0188 -0.7491 0.1903 -5.5127 -0.5068 2.4600 -5.4999 -2.4470 -1.0477 -2.3871 -0.2005 1.1941 -3.4730 -1.4934 1.1269 -2.6930 1.2389 -1.5535 0.0868 -0.8602 0.3121 0.3225 -1.1341 0.7193 3.5383 1.3114 0.2709 3.3282 0.0786 0.8376 2.6325 -0.5088 1.3845 -4.9208 0.2880 -1.3822 -1.0045 -1.6123 -0.2198 -2.0345 -0.0014 0.1144 1.3351 -0.7062 -0.4769 -0.8905 1.0978 -0.8233 1.2073 1.9816 -0.7548 2.4088
-2.0357 1.9244 3.5073 -1.9929 -0.5541 3.4883 1.1469 1.0694 4.3488 1.3340 -2.7075 -2.0357 2.7451 -1.3981 2.9715 2.9561 0.9002 2.0896 -0.6003 2.1749 -5.3068 -2.1370 2.4352 -3.6354 -2.1811 -1.6784 -2.4640 -0.1922 1.0513 -3.2929 -0.5142 -0.3938 -3.6031 1.6743 -1.5424 0.1327 -0.7761 -0.1604 -0.0764 -1.6557 0.6992 2.7160 0.8026 0.1540 3.1967 -0.2157 0.7822 2.2493 -1.1057 1.9457 -4.0709 0.8172 -1.7451 -1.0293 -1.1066 -1.0866 -2.4049 0.0351 0.0429 0.9743 -0.3297 -1.0442 -1.1439 1.3325 -0.6213 1.0510 1.9991 -0.2475 2.3377
-1.4974 1.4339 4.6118 -1.4234 -0.9135 3.8421 1.9616 1.6337 3.8107 0.5892 -2.3296 -2.0731 2.0843 -1.8611 3.1275 3.3351 -0.0405 2.0446 0.0616 2.4093 -5.0064 -0.2542 0.4954 -6.2080 -2.8599 -0.3342 -1.8399 -1.5426 0.9147 -4.2049 -1.1019 -0.3242 -3.4663 1.2824 -1.4267 0.1166 -0.8679 0.3869 0.2341 -1.3471 0.5335 3.4104 1.1817 0.4310 3.3322 -0.0941 0.8810 2.6215 -0.5213 1.2122 -5.2553 0.3359 -1.3457 -0.9876 -1.6524 -0.3474 -2.0671 -0.0514 0.2197 1.2883 -0.6656 -0.4385 -0.9561 1.0965 -0.6611 1.2045 1.9511 -0.5289 2.4206
-1.5666 1.5645 4.4275 -1.5219 -0.8251 3.7889 1.8800 1.6914 3.5974 0.5996 -2.3023 -2.2475 1.9973 -1.8325 3.0545 3.2512 -0.0547 1.9071 1.0019 0.6935 -4.8329 -0.9698 1.5477 -5.6004 -2.3476 -1.3940 -2.6132 -0.4853 1.5012 -3.2303 -1.8257 0.9267 -2.8349 1.2201 -1.4642 0.0032 -1.0203 0.2419 0.1411 -1.4323 0.5951 3.2794 1.0999 0.4650 3.1815 -0.1831 0.8808 2.4646 -0.2216 1.2556 -4.6810 0.2792 -1.4037 -1.1074 -1.6876 -0.4379 -2.2128 -0.1627 0.1489 1.1705 -0.7789 -0.5676 -1.0468 1.0076 -0.7043 1.0918 1.8664 -0.5263 2.2998
-2.6831 -0.0250 3.1592 -1.0191 0.5717 4.8457 1.5643 2.1510 2.2605 1.1173 -1.9823 -2.4486 1.7579 -1.5160 3.3001 3.2935 -0.1041 2.0190 -0.6879 2.5359 -4.9367 1.0063 1.1590 -4.2700 -2.1842 -1.9528 -2.5185 -0.9213 1.4812 -2.8617 -1.8826 0.3410 -3.0975 1.4807 -1.2590 -0.1005 -1.1060 -0.1582 0.1035 -1.2075 -0.0700 3.4893 1.0705 0.8341 2.8311 -0.3988 0.6461 2.4176 -0.0845 1.6759 -4.0823 0.5680 -1.3245 -1.2343 -1.6100 -0.8927 -2.2729 -0.2840 -0.1707 1.1662 -0.6718 -0.8026 -1.1285 1.0513 -0.7517 1.0681 1.8310 -0.3862 2.2912
-2.5977 0.8909 3.0581 -1.0934 0.4696 4.9345 1.9226 1.5236 3.7618 0.5630 -2.2113 -2.2871 2.2904 -1.8774 2.8957 3.2914 0.0833 1.7926 0.8701 2.1069 -4.3338 -0.0974 0.7587 -5.8988 -3.0311 -0.5637 -1.7475 -1.2080 1.1882 -3.7927 -1.4060 -0.2724 -3.4693 1.2713 -1.4011 -0.0614 -0.9852 0.2455 0.2389 -1.3045 0.2169 3.4579 1.1955 0.3120 3.2262 -0.1428 0.7204 2.6062 -0.1097 1.2979 -4.8023 0.2784 -1.3288 -1.1255 -1.8441 -0.4448 -2.0429 -0.1318 0.0676 1.2618 -0.7872 -0.5078 -0.9971 1.0676 -0.7279 1.0836 1.9886 -0.5464 2.2410
-2.9845 0.7039 2.1144 -1.7448 0.7183 4.2185 1.1982 1.9577 3.2883 1.5595 -2.3375 -2.4339 2.2718 -1.3812 3.0340 3.0701 0.5625 1.7530 -1.2948 2.9500 -3.0206 0.6361 2.1775 -2.0842 -1.4858 -2.3521 -3.1182 -0.5276 0.8445 -3.7236 -1.6796 0.0306 -3.1788 1.6747 -1.4251 -0.1271 -0.9702 -0.4767 -0.2186 -1.7314 0.2022 2.7973 0.7734 0.5688 2.8676 -0.4956 0.6352 2.0194 -0.3109 2.0362 -2.8437 0.8621 -1.6511 -1.3150 -1.1910 -1.2736 -2.6108 -0.2159 -0.2811 0.8750 -0.4076 -1.1962 -1.3528 1.1496 -0.7719 0.9255 1.8440 -0.2407 2.1344
-2.7319 1.0955 2.7127 -1.3025 0.4551 4.5937 1.6528 1.7961 3.4211 0.8626 -2.4061 -2.3832 2.2178 -1.6636 2.9193 3.2045 0.2310 1.6975 1.2564 1.2188 -3.7898 -0.2655 2.8224 -3.2258 -2.2236 -1.9327 -2.6869 -0.9940 0.6893 -4.1069 -1.9790 0.4278 -2.9920 1.3729 -1.4643 -0.1452 -1.0597 -0.0529 -0.0265 -1.5038 0.3059 3.1033 1.0200 0.4928 2.9883 -0.3068 0.7550 2.2756 0.0010 1.7085 -3.6500 0.4310 -1.5427 -1.2535 -1.6748 -0.8908 -2.3397 -0.2087 -0.0357 1.0135 -0.7286 -0.8554 -1.1974 1.0574 -0.7418 0.9441 1.9025 -0.4121 2.1278
-1.7174 -0.9124 3.4081 -2.7354 1.1554 2.4874 1.5605 2.0176 3.3457 1.3176 -2.5346 -2.1992 2.2533 -1.4665 3.1682 3.2823 0.3622 1.8850 -0.5403 2.7813 -4.7220 -0.8354 2.7996 -2.4592 -1.7743 -2.3192 -2.6804 -0.4784 0.7159 -3.6347 -1.7050 0.0374 -3.0697 1.6340 -1.4744 0.0235 -0.9026 -0.2500 -0.0445 -1.4871 0.5416 3.0700 1.0046 0.6544 3.0050 -0.2767 0.7976 2.1914 -0.6494 2.1963 -3.5047 0.7576 -1.6741 -1.1238 -1.3267 -1.2255 -2.3454 -0.1014 -0.1073 1.0237 -0.4561 -1.0840 -1.1520 1.2101 -0.7287 1.0594 1.9661 -0.2825 2.2681
-2.6145 1.3984 2.5983 -1.4934 0.4833 4.5657 1.4899 0.9475 4.1750 0.7319 -2.4526 -2.3692 2.8904 -1.3931 2.4406 2.8667 0.9458 1.6525 0.9289 1.8010 -2.7655 0.4636 1.8002 -4.9991 -2.9055 -1.4163 -2.1130 -1.2412 1.1974 -3.4011 -1.3412 -0.3042 -3.5421 1.3618 -1.4332 -0.1943 -1.1148 -0.1104 0.0607 -1.5679 0.4086 3.0581 0.9604 0.0585 3.0706 -0.2424 0.6821 2.3563 0.1237 1.6212 -3.8396 0.3440 -1.5848 -1.2261 -1.7914 -0.9173 -2.2438 -0.1713 0.0220 1.0089 -0.8195 -0.9088 -1.1230 1.1389 -0.5934 0.8312 2.0031 -0.2519 1.9990
-1.8923 -0.5356 3.6914 -2.3861 1.7076 2.7208 1.7211 1.2043 4.0281 0.7809 -2.1771 -2.4773 2.9061 -1.4471 2.5588 2.9534 0.7707 1.4597 -0.3425 2.7296 -4.4212 1.0573 1.5001 -3.1024 -2.5170 -1.8094 -2.4376 -0.9558 0.5167 -3.9956 -1.9150 0.4805 -2.8277 1.3652 -1.4596 -0.1743 -1.1415 -0.2310 0.2208 -1.3210 0.7999 3.2819 1.1056 0.1889 3.0942 -0.1172 0.7286 2.3681 0.0387 1.6092 -3.7646 0.3493 -1.5258 -1.2142 -1.8150 -0.8499 -2.1357 -0.1964 -0.1630 1.1727 -0.8480 -0.9363 -1.0192 1.1101 -0.7802 0.9575 2.0599 -0.3209 2.0159
-2.6084 0.0822 3.2697 -0.8153 0.5125 4.8772 1.6578 2.1510 2.1885 0.7324 -2.2189 -2.4074 1.7956 -1.5240 3.1843 3.2782 -0.1531 1.7966 0.3787 1.6830 -5.1862 1.0359 1.8368 -3.0063 -2.9584 -1.1910 -2.0473 -1.2465 1.2784 -3.5484 -1.3932 -0.2255 -3.5755 1.2963 -1.3473 -0.1562 -1.1468 0.0299 0.0857 -1.1174 -0.0315 3.4984 1.1425 0.8423 2.7567 -0.3495 0.7132 2.4144 0.1773 1.6204 -3.8490 0.3248 -1.3938 -1.2405 -1.8319 -0.7364 -2.2307 -0.3173 -0.0713 1.1373 -0.8337 -0.7096 -1.1322 0.9674 -0.7490 1.0010 1.8315 -0.3984 2.1699

>  <OB_ATOM_TYPES> (1c12B1)
C.3 C.3 C.3 C.3 C.3 C.3 O.co2 O.co2 O.2 C.3 C.3 C.ar C.ar C.3 C.3 C.3 C.2 C.ar C.2 C.ar C.ar C.ar C.3

>  <ENSEMBLE_RMSD> (1c12B1)
0.000 0.731 0.767 0.776 0.776 0.877 0.924 0.967 1.004 1.011 1.033 1.041 1.055 1.086 1.087 1.092 1.121 1.156 1.184 1.206 1.275 1.281 1.306 1.335 1.336 1.355 1.357 1.357 1.374 1.375 1.395 1.399 1.422 1.452 1.465 1.495 1.556 1.633 1.639 1.743 1.795 1.812 1.835 1.846 1.934 1.957 1.961 2.007 2.018 2.052

$$$$
