
 OpenBabel03071213D

 19 21  0  0  0  0  0  0  0  0999 V2000
   20.5330  -15.1250   50.1740 C   0  0  0  0  0
   16.6910  -18.0790   50.3740 Cl  0  0  0  0  0
   17.2910  -16.7670   53.4490 Cl  0  0  0  0  0
   13.4720  -15.6360   51.8980 Cl  0  0  0  0  0
   14.0630  -13.0410   50.7380 Cl  0  0  0  0  0
   14.6830  -15.8340   48.6460 Cl  0  0  0  0  0
   15.7790  -13.7300   53.7210 Cl  0  0  0  0  0
   18.2890  -15.4540   48.2680 O   0  0  0  0  0
   19.2640  -13.7160   52.4390 O   0  0  0  0  0
   16.8050  -14.3200   49.7980 C   0  0  0  0  0
   17.1140  -13.7210   51.2170 C   0  0  0  0  0
   19.1430  -14.6970   50.3080 N   0  0  0  0  0
   18.1480  -14.8890   49.3300 C   0  0  0  0  0
   18.6240  -14.0150   51.4240 C   0  0  0  0  0
   16.2680  -16.4960   50.9200 C   0  0  0  0  0
   16.5190  -15.9760   52.1610 C   0  0  0  0  0
   14.8020  -14.6200   51.2120 C   0  0  0  0  0
   15.6500  -15.3540   50.0910 C   0  0  0  0  0
   16.0780  -14.5020   52.1350 C   0  0  0  0  0
  1 12  1  0  0  0
  2 15  1  0  0  0
  3 16  1  0  0  0
  4 17  1  0  0  0
  5 17  1  0  0  0
  6 18  1  0  0  0
  7 19  1  0  0  0
  8 13  2  0  0  0
  9 14  2  0  0  0
 10 11  1  0  0  0
 10 13  1  0  0  0
 10 18  1  0  0  0
 11 14  1  0  0  0
 11 19  1  0  0  0
 12 13  1  0  0  0
 12 14  1  0  0  0
 15 16  2  0  0  0
 15 18  1  0  0  0
 16 19  1  0  0  0
 17 18  1  0  0  0
 17 19  1  0  0  0
M  END
>  <MOLID> (1c1eB1)
1c1eB1

>  <SMILES_CANONICAL> (1c1eB1)
O=C1N(C)C(=O)[C@H]2[C@@H]1[C@@]1(Cl)C(=C([C@@]2(C1(Cl)Cl)Cl)Cl)Cl	

>  <FINGERPRINT> (1c1eB1)
0001000000000011000000000000010100000001000000000001000000100000000000000001000000000000000000000000000000000000000001000000000010000000001100000000000000000000000000000000000000000100000100000000000000000100000000001000000000100000000000000000010000000010100100000000000001000000000000000000000000010000100000001000000000000000001000000000010000000000010000000000001100010000000000000000010000000010100000000000101000000000000000000000000000000100000000000000000000000100000000000000000000000000000000000000000000000000000010000100000000000000000000000000000000000000001000000001001000000001001000000000000000000010000000000000001000000001000000000100001000001000000000001001000000000100000001111001000000000000000000001000000100000000000000000001000000000000000110000000000001100000000000000100000000001100011000001000100000000000000000000100000001000000000000001001000000001000000000110010100000000110100000000000000000100011100000010000010000000000010000010010110000000010000000000000010000000001110000100011101000000000

>  <MACCS166> (1c1eB1)
000000000000000000000000000000000000000000000000000000000000000001000000001100000010101010011001001000101011010100001001110000100000010110011110010111000101011110011000

>  <OB_MW> (1c1eB1)
380.845

>  <OB_logP> (1c1eB1)
3.0008

>  <OB_PSA> (1c1eB1)
37.38

>  <OB_MR> (1c1eB1)
79.469

>  <OB_ATOMIC_CHARGES> (1c1eB1)
0.1227792438 -0.0850399422 -0.0850399422 -0.0963583434 -0.0963583434 -0.1078018124 -0.1078018124 -0.2744091556 -0.2744091556 0.1081435707 0.1081435707 -0.2280548141 0.2330263621 0.2330263621 0.0593112579 0.0593112579 0.1678011142 0.131865291 0.131865291

>  <MCT_HBD> (1c1eB1)
0

>  <MCT_HBA> (1c1eB1)
3

>  <ENSEMBLE_TOTAL> (1c1eB1)
1

>  <ENSEMBLE_COORDS> (1c1eB1)
3.7322 -0.0738 -0.7893 -0.1098 -3.0278 -0.5893 0.4902 -1.7158 2.4857 -3.3288 -0.5848 0.9347 -2.7378 2.0102 -0.2253 -2.1178 -0.7828 -2.3173 -1.0218 1.3212 2.7577 1.4882 -0.4028 -2.6953 2.4632 1.3352 1.4757 0.0042 0.7312 -1.1653 0.3132 1.3302 0.2537 2.3422 0.3542 -0.6553 1.3472 0.1622 -1.6333 1.8232 1.0362 0.4607 -0.5328 -1.4448 -0.0433 -0.2818 -0.9248 1.1977 -1.9988 0.4312 0.2487 -1.1508 -0.3028 -0.8723 -0.7228 0.5492 1.1717

>  <OB_ATOM_TYPES> (1c1eB1)
C.3 Cl Cl Cl Cl Cl Cl O.2 O.2 C.3 C.3 N.am C.2 C.2 C.2 C.2 C.3 C.3 C.3

>  <ENSEMBLE_RMSD> (1c1eB1)
0.000

$$$$
