
 OpenBabel03071213D

 13 14  0  0  0  0  0  0  0  0999 V2000
    7.3070   -1.1620   27.0290 N   0  0  0  0  0
    8.0320    4.5270   27.8120 I   0  0  0  0  0
    8.3420   -1.9500   25.1290 N   0  0  0  0  0
    9.0260    0.6610   23.8540 S   0  0  0  0  0
    9.6440    4.6920   23.8400 C   0  0  0  0  0
    9.1550    4.9540   25.1360 C   0  0  0  0  0
    9.6550    3.3990   23.3520 C   0  0  0  0  0
    8.2290    1.5180   26.1370 C   0  0  0  0  0
    7.9510   -0.9830   25.9110 C   0  0  0  0  0
    8.6720    3.9300   25.9340 C   0  0  0  0  0
    8.2930    0.2880   25.5050 C   0  0  0  0  0
    9.1720    2.3800   24.1510 C   0  0  0  0  0
    8.6640    2.6270   25.4550 C   0  0  0  0  0
  1  9  1  0  0  0
  2 10  1  0  0  0
  3  9  2  0  0  0
  4 11  1  0  0  0
  4 12  1  0  0  0
  5  6  1  0  0  0
  5  7  2  0  0  0
  6 10  2  0  0  0
  7 12  1  0  0  0
  8 11  2  0  0  0
  8 13  1  0  0  0
  9 11  1  0  0  0
 10 13  1  0  0  0
 12 13  2  0  0  0
M  END
>  <MOLID> (1c5xB1)
1c5xB1

>  <SMILES_CANONICAL> (1c5xB1)
NC(=N)c1sc2c(c1)c(I)ccc2	

>  <FINGERPRINT> (1c5xB1)
0000000000000001000000000000000000010001000000000000000000000000010000100001000000000001000000000000000000000001000001100000000000000000000010000000000000000000000100000000010000000000000000000000000000000000000000001000000000000000000000000001001000000000000000000000000000000001000000000000000000001000000010001100001100000000000000000000001000000000010000000000000110000000100000000000000000000001000010000101000000000010000000000000000000100000000000000000000000100000100000000000000000001000000000000000000000000000000000001000000000000000000000110000000000000000000010000000000000000000000000010000000000010000000000000000000000001000000001000000000100010000010000000100100000000000100000001000100000000000000000010000000010000000000000000100000000000000001000000000001000000000000000000000001010000100000000000000000000000000010000000100000000100000000000000000000000000000000000000000010000000000000000000000000000001000000000000000011000000000000000000100001000100100000000000000000000000000110000010000010000000000

>  <MACCS166> (1c5xB1)
000000000000000000000000011000000001010000100000010000000000000000000000000111001011001100000001001000001010000000000011000010000010010010000100000000100001010010101000

>  <OB_MW> (1c5xB1)
301.937

>  <OB_logP> (1c5xB1)
3.59

>  <OB_PSA> (1c5xB1)
78.11

>  <OB_MR> (1c5xB1)
65.8061

>  <OB_ATOMIC_CHARGES> (1c5xB1)
0.2052880705 -0.0425068681 0.2052880705 -0.0790364973 0.0009470793 0.0058135742 0.0065054219 0.0154639596 0.4824721552 0.0305499575 0.1269850517 0.0301096587 0.0121203663

>  <MCT_HBD> (1c5xB1)
2

>  <MCT_HBA> (1c5xB1)
2

>  <ENSEMBLE_TOTAL> (1c5xB1)
3

>  <ENSEMBLE_COORDS> (1c5xB1)
-1.3193 -3.0759 1.7025 -0.5943 2.6131 2.4855 -0.2843 -3.8639 -0.1975 0.3997 -1.2529 -1.4725 1.0177 2.7781 -1.4865 0.5287 3.0401 -0.1905 1.0287 1.4851 -1.9745 -0.3973 -0.3959 0.8105 -0.6753 -2.8969 0.5845 0.0457 2.0161 0.6075 -0.3333 -1.6259 0.1785 0.5457 0.4661 -1.1755 0.0377 0.7131 0.1285
-0.7367 -3.9599 -0.3480 -0.4338 2.6785 2.5385 -0.8938 -3.1007 1.8203 0.3385 -1.2438 -1.4956 0.9737 2.7258 -1.5674 0.5629 3.0662 -0.2152 0.9213 1.4500 -1.9920 -0.3975 -0.4551 0.8774 -0.6509 -2.9130 0.5505 0.1136 2.1218 0.6379 -0.2890 -1.5442 0.0979 0.4442 0.4371 -1.0798 0.0474 0.7373 0.1755
-0.3633 -4.0211 -0.2264 -0.5770 2.7050 2.4849 -1.2760 -3.0452 1.6901 0.3907 -1.2511 -1.4741 1.0236 2.7184 -1.5498 0.5478 3.0695 -0.2220 0.9968 1.4383 -1.9632 -0.4114 -0.4527 0.8740 -0.6575 -2.9137 0.5470 0.0722 2.1295 0.6219 -0.2742 -1.5467 0.1056 0.4859 0.4312 -1.0627 0.0422 0.7386 0.1748

>  <OB_ATOM_TYPES> (1c5xB1)
N.pl3 I N.pl3 S.2 C.ar C.ar C.ar C.ar C.2 C.ar C.ar C.ar C.ar

>  <ENSEMBLE_RMSD> (1c5xB1)
0.000 0.898 0.913

$$$$
