
 OpenBabel03071213D

 22 22  0  0  0  0  0  0  0  0999 V2000
   19.7910   26.4490   16.9470 C   0  0  0  0  0
   24.1810   26.8410   20.3850 C   0  0  0  0  0
   24.3030   23.7470   24.4890 C   0  0  0  0  0
   22.2380   30.7370   17.9480 C   0  0  0  0  0
   23.2920   29.6200   15.9480 C   0  0  0  0  0
   21.8400   21.7120   27.0370 O   0  0  0  0  0
   23.6400   21.0750   25.9780 O   0  0  0  0  0
   20.2450   29.6350   14.8480 C   0  0  0  0  0
   19.5550   28.4790   15.4880 C   0  0  0  0  0
   20.9210   30.5240   15.8410 C   0  0  0  0  0
   22.8750   24.9240   22.2340 C   0  0  0  0  0
   22.1590   25.5360   21.1310 C   0  0  0  0  0
   22.2370   24.0260   22.9900 C   0  0  0  0  0
   21.8680   26.9770   19.2400 C   0  0  0  0  0
   22.2420   27.8510   18.2970 C   0  0  0  0  0
   22.1350   22.4730   24.8340 C   0  0  0  0  0
   22.5630   21.7100   26.0160 C   0  0  0  0  0
   20.3890   27.8120   16.5870 C   0  0  0  0  0
   22.7050   26.4340   20.2860 C   0  0  0  0  0
   22.8560   23.3770   24.1250 C   0  0  0  0  0
   21.4250   28.4460   17.2180 C   0  0  0  0  0
   21.9720   29.8310   16.7390 C   0  0  0  0  0
  1 18  1  0  0  0
  2 19  1  0  0  0
  3 20  1  0  0  0
  4 22  1  0  0  0
  5 22  1  0  0  0
  6 17  1  0  0  0
  7 17  2  0  0  0
  8  9  1  0  0  0
  8 10  1  0  0  0
  9 18  1  0  0  0
 10 22  1  0  0  0
 11 12  1  0  0  0
 11 13  2  0  0  0
 12 19  2  0  0  0
 13 20  1  0  0  0
 14 15  2  0  0  0
 14 19  1  0  0  0
 15 21  1  0  0  0
 16 17  1  0  0  0
 16 20  2  0  0  0
 18 21  2  0  0  0
 21 22  1  0  0  0
M  END
>  <MOLID> (1cbsA1)
1cbsA1

>  <SMILES_CANONICAL> (1cbsA1)
C/C(=C\C=C\C(=C\C(=O)O)\C)/C=C/C1=C(C)CCCC1(C)C	

>  <FINGERPRINT> (1cbsA1)
0000000000000000000001000000000000000001000001000000000000100000000000000000000000000000000000000000000000000000000000000000000001000000000000000000000000000000000000000000000000000000000000010000000000000000000000000000000000000000000000000000010000000010000000010000000001000000000000000000000000010000000000000000000000000000000000000000000000000000010000000000000000000000000000000000000000000010100000000000000000100000000000100000000000000100000000000000000000000100000000000000000000001000000000000000110000000000000000000000000000000000000000000000000000000000001000000000001000001001001000001001000000000000000000000000000000000001000000000000000000000000000000000000000000000000000010100000000000000000010000001000000000000000000000000000000000000000000100100000000000100000000100000000000000000000000000000000000000000000000000000100000001000000000000001000000000000000000000000000000000000000000000000000000000000000000000000000000000000000000000000010010010000010000000000000000000000000000000000000000000000000

>  <MACCS166> (1cbsA1)
000000000000000000000000000000000000000000000000010000000000000001000000010100000000000000000000001000000001000100110100001000000010000100111000011011000100101100111000

>  <OB_MW> (1cbsA1)
300.209

>  <OB_logP> (1cbsA1)
5.6026

>  <OB_PSA> (1cbsA1)
37.3

>  <OB_MR> (1cbsA1)
95.2818

>  <OB_ATOMIC_CHARGES> (1cbsA1)
0.0260252619 0.0310265347 0.0312447592 0.0043488198 0.0043488198 -0.2405605485 -0.2405605485 0.0046536411 0.0217194408 0.0043590523 -0.0006419414 -0.00426627 -0.0040570476 -0.0045983459 -0.0052264021 0.0818837529 0.3876460239 -0.0478741738 -0.0218597849 -0.0152767398 -0.0306697798 0.0183354755

>  <MCT_HBD> (1cbsA1)
1

>  <MCT_HBA> (1cbsA1)
2

>  <ENSEMBLE_TOTAL> (1cbsA1)
50

>  <ENSEMBLE_COORDS> (1cbsA1)
-2.2212 0.1919 -3.1018 1.6113 1.2587 0.7560 2.1336 -2.3941 4.3900 0.2735 4.4286 -2.6167 1.3676 3.0218 -4.2844 1.0847 -4.0336 6.5716 0.4032 -5.9941 5.6271 -2.2355 3.4789 -4.8585 -2.2532 1.9698 -4.8417 -0.8159 3.9842 -4.7579 0.5766 -1.1247 2.2176 -0.0188 -0.5952 1.0234 0.3366 -2.3666 2.6468 -0.3372 0.9314 -0.8043 0.1516 1.6072 -1.8482 0.1939 -3.9713 4.4117 0.6003 -4.7900 5.5632 -1.6001 1.4506 -3.6018 0.4154 0.4709 0.3374 0.8641 -2.9574 3.8510 -0.5552 2.0847 -3.0273 0.0248 3.3482 -3.6533
-2.5390 0.4550 -2.8925 2.0105 0.7104 0.2766 1.9066 -2.1708 4.6688 -0.4581 4.6268 -2.9409 1.5023 3.3002 -3.4937 1.1465 -4.2811 6.4834 0.6145 -6.1332 5.2659 -1.6145 2.8332 -5.5895 -2.5548 2.3647 -4.5057 -0.3157 3.4296 -5.0923 0.6541 -1.0371 2.2703 -0.0270 -0.3722 1.1972 0.1378 -2.0975 2.8964 -0.2829 1.0728 -0.7008 0.1169 1.4606 -1.9143 0.2137 -3.9829 4.3584 0.7072 -4.9201 5.3781 -1.8396 1.6697 -3.3967 0.5476 0.4138 0.2776 0.7532 -2.8175 3.9822 -0.6658 2.1396 -2.9280 -0.0135 3.3359 -3.6003
-2.3432 0.2584 -3.1846 0.6262 0.8800 1.1883 2.3741 -3.7371 3.5511 -0.1518 4.4796 -1.9869 1.2428 3.3187 -3.6430 -0.1930 -3.1490 6.8059 1.1614 -4.8049 6.0020 -1.3895 3.2720 -5.3555 -2.2415 2.1580 -4.7919 -0.9706 4.2170 -4.2545 1.3513 -1.9917 1.3723 0.8301 -1.3816 0.1840 0.5645 -2.5919 2.2687 0.0034 0.3878 -1.2012 -0.3354 1.6484 -1.4807 0.1525 -3.1787 4.5480 0.4785 -3.8093 5.8361 -1.7155 1.5691 -3.5211 0.5012 -0.0893 0.0614 1.0099 -3.1382 3.5216 -0.7740 2.1695 -2.7625 -0.1815 3.5131 -3.1575
-2.2115 0.1788 -3.5235 1.8544 -0.1275 0.0161 -0.7358 -2.3768 5.5411 0.4457 4.0866 -2.1634 1.4870 3.0240 -4.1139 1.3422 -4.0852 6.3631 2.4032 -5.2861 4.7468 -2.0846 3.7883 -4.5298 -2.1990 2.3124 -4.8305 -0.6353 4.1747 -4.3541 0.2247 -1.2629 2.2385 -0.3293 -0.5475 1.1239 -0.5322 -1.9040 3.1345 -0.3110 0.7658 -0.8933 0.1915 1.1157 -2.0832 0.9796 -3.5161 4.1115 1.6338 -4.3982 5.0843 -1.5609 1.4995 -3.7530 0.3695 -0.0185 0.1097 -0.0150 -2.6348 4.2650 -0.4799 1.9373 -3.0767 0.1631 3.2744 -3.4131
-2.3209 -0.0204 -2.7658 2.4211 0.4769 0.0061 3.0497 -2.3556 4.3474 -0.8024 4.3808 -2.5296 1.2649 3.3702 -3.3448 -1.2122 -3.3250 4.5671 -0.4865 -5.4726 4.8126 -2.1853 3.1599 -4.9598 -2.7295 1.9524 -4.2277 -0.6964 3.3555 -4.7842 1.3781 -1.0681 2.3058 0.5379 -0.4520 1.3227 0.9273 -2.0773 3.0496 0.0043 0.8826 -0.5941 0.2199 1.2187 -1.8683 1.0754 -3.6863 4.8800 -0.2635 -4.2760 4.7137 -1.8373 1.3197 -3.2071 0.9701 0.2496 0.2692 1.6349 -2.7540 4.0988 -0.7043 1.8980 -2.7557 -0.2455 3.2231 -3.3358
-1.7430 0.1579 -4.0697 2.0466 -0.4609 -0.5402 1.7019 -4.0805 3.4354 -0.3594 3.9684 -1.3407 1.1000 3.8806 -3.3153 0.6042 -4.6769 6.2050 1.2827 -2.6669 7.0572 -1.6060 3.8894 -4.9182 -2.1988 2.5024 -4.8055 -1.2895 4.4289 -3.5418 0.6099 -2.1177 1.4564 -0.0538 -1.3468 0.4484 -0.0060 -2.4677 2.5870 -0.2328 0.3218 -1.2536 0.2459 1.1740 -2.1639 0.1987 -2.7770 4.9453 0.7926 -3.3394 6.1645 -1.4432 1.6068 -3.8771 0.5619 -0.5499 -0.4324 0.6452 -3.0688 3.7182 -0.5678 2.0694 -2.9609 -0.2892 3.5526 -2.7982
-2.3832 -0.0382 -2.7651 2.3466 0.2249 -0.0101 3.0059 -2.2079 4.4512 -0.7260 4.3165 -2.5369 1.3133 3.2294 -3.3216 -1.2101 -3.4196 4.4687 -0.3481 -5.5317 4.4161 -2.1251 3.1260 -4.9721 -2.7109 1.9324 -4.2494 -0.6323 3.2739 -4.7830 1.2552 -0.7625 2.5709 0.4571 -0.1500 1.5500 0.9529 -1.9721 3.0441 -0.0164 0.9575 -0.5220 0.1711 1.1257 -1.8337 1.0845 -3.6743 4.7944 -0.2047 -4.3218 4.5006 -1.8534 1.2830 -3.2098 0.9070 0.3054 0.3749 1.6283 -2.6619 4.1069 -0.7106 1.8305 -2.7451 -0.2011 3.1349 -3.3290
-2.0044 -0.1400 -2.9564 1.9226 1.0326 0.7661 3.1948 -3.2469 3.7205 -0.1865 4.3387 -1.9704 0.9193 3.4216 -3.9528 -0.9946 -2.5143 4.7694 -0.9444 -4.6713 5.5103 -2.0104 3.0747 -5.0414 -2.5342 1.8176 -4.3869 -1.4705 4.0267 -4.0019 1.5650 -1.7322 1.7695 0.7605 -1.1581 0.7312 1.0402 -2.5946 2.6411 -0.0495 0.5686 -0.7258 0.2172 1.4589 -1.6854 1.0732 -3.5891 4.8775 -0.3852 -3.6864 5.0531 -1.6638 1.2716 -3.2971 0.8926 0.0842 0.2513 1.7089 -3.1514 3.7834 -0.6805 1.9839 -2.7037 -0.3704 3.4054 -3.1515
-2.0086 0.1856 -3.7545 1.8302 -0.1164 0.0288 -0.6410 -4.6182 4.0253 0.1127 4.1441 -1.7484 1.3493 3.4733 -3.7619 0.8648 -4.0839 6.5539 2.9178 -3.4431 5.7879 -1.4285 3.6988 -5.1846 -2.1675 2.4249 -4.8424 -0.9377 4.3752 -3.9260 0.2110 -1.7492 1.9249 -0.3540 -0.9274 0.8925 -0.5257 -2.5109 2.7411 -0.3647 0.6312 -0.9437 0.1665 1.1882 -2.0387 0.9644 -2.7949 4.6215 1.7039 -3.5045 5.6695 -1.5024 1.5880 -3.7944 0.3397 -0.1890 0.0142 0.0204 -3.3003 3.8186 -0.5311 2.0512 -2.9796 -0.0194 3.4774 -3.1039
-1.7192 0.2765 -4.6968 1.2605 -1.4838 -1.1218 2.3915 -2.9930 3.8714 -0.4888 3.5722 -1.2495 1.0647 3.7113 -3.1529 1.2974 -5.0118 5.7180 0.2092 -3.7224 7.2552 -1.5125 4.1085 -4.8565 -2.0931 2.7251 -5.0554 -1.2966 4.3790 -3.3860 0.8946 -1.4270 1.8301 0.2647 -0.4984 0.9295 0.3856 -1.7363 3.0263 -0.3193 0.4579 -1.2072 0.0236 0.8813 -2.4296 0.1541 -3.1261 4.9600 0.5770 -3.9386 6.1105 -1.4413 1.6636 -4.2236 0.4187 -0.4849 -0.4027 0.9445 -2.6565 3.9865 -0.6590 1.9369 -3.1587 -0.3564 3.3666 -2.7467
-1.5308 -0.1896 -3.8342 2.4495 -0.2980 -0.5666 3.1144 -3.2656 3.6830 -0.6044 3.9317 -1.3140 0.6945 3.9314 -3.3987 -0.9299 -2.2964 5.0277 -0.9434 -4.4421 5.8017 -2.0953 3.4870 -4.7709 -2.4063 2.0181 -4.5937 -1.7635 4.1171 -3.4389 1.4263 -1.5118 1.9553 0.5953 -0.8742 0.9750 0.9403 -2.4550 2.7655 0.0513 0.3270 -1.0306 0.3281 1.2091 -1.9969 1.0730 -3.4864 4.9907 -0.3680 -3.4976 5.2836 -1.4686 1.2927 -3.6787 1.0167 -0.2918 -0.1544 1.6489 -3.0637 3.8583 -0.6418 1.9200 -2.8153 -0.5864 3.4379 -2.7480
-3.1720 1.4571 -2.4832 0.2450 1.6988 1.4172 1.7177 -2.0720 4.7171 0.2978 4.4122 -3.4221 1.6290 2.3556 -3.3056 2.0429 -4.9523 5.6694 -0.2024 -5.2020 6.0223 -1.3758 2.9504 -5.5558 -2.3877 2.1652 -4.7508 0.0369 2.6342 -5.1201 0.7197 -1.1442 2.1014 0.4350 -0.6939 0.7720 0.7928 -2.4379 2.4189 -0.1121 0.8941 -0.9332 -0.5513 2.0730 -1.3864 0.6008 -4.1940 4.0253 0.7376 -4.7989 5.3564 -2.0502 2.0008 -3.3035 0.1928 0.5786 0.4349 0.9910 -2.9440 3.7507 -0.8439 2.3094 -2.7858 0.2565 2.9100 -3.6390
-1.5749 -0.1670 -4.0486 2.1595 -0.9365 -0.8860 3.1554 -2.5815 4.1307 -0.5135 3.7063 -1.2225 0.7752 3.8306 -3.3134 -0.7186 -3.9576 6.3502 -1.2119 -3.4884 4.1701 -2.0021 3.5903 -4.7088 -2.3736 2.1246 -4.6571 -1.6740 4.0975 -3.3231 1.4683 -1.3846 1.9684 0.6398 -0.6476 1.0558 0.9782 -1.8661 3.1114 -0.0200 0.2986 -1.0527 0.3032 1.0130 -2.1358 1.0463 -3.4202 5.0008 -0.4142 -3.5892 5.0855 -1.4694 1.2992 -3.7966 0.9210 -0.4224 -0.2336 1.6688 -2.6644 4.0875 -0.6260 1.8326 -2.8895 -0.5174 3.3327 -2.6926
-3.1454 1.5999 -2.5644 0.5851 1.6840 1.3005 0.4338 -2.0560 5.0822 0.3867 4.3786 -3.5779 1.7275 2.3545 -3.2431 2.1894 -4.2546 6.0137 0.9594 -6.0648 5.3652 -1.1727 2.8449 -5.6662 -2.3090 2.3491 -4.7970 0.1860 2.4559 -5.1270 0.1622 -1.0882 2.2901 -0.1959 -0.6503 0.9699 0.2965 -2.3804 2.5983 -0.3233 0.8703 -0.8887 -0.5065 2.0871 -1.4146 1.1229 -4.1692 3.9466 1.3639 -4.9269 5.1830 -1.9873 2.1072 -3.3564 -0.0251 0.5897 0.4923 0.6558 -2.9161 3.8858 -0.7683 2.3223 -2.8215 0.3642 2.8631 -3.6709
-2.5060 0.5282 -3.0307 1.6747 0.3798 0.4751 -1.0715 -3.4992 4.9617 -0.2287 4.5884 -2.8265 1.7104 3.1575 -3.2564 3.0349 -3.6516 5.4952 1.3346 -5.1680 5.6986 -1.4456 3.4171 -5.3738 -2.2965 2.3761 -4.6803 0.0105 3.3678 -4.9746 0.0249 -1.2939 2.3180 -0.4937 -0.6270 1.1621 -0.5388 -2.3935 2.8253 -0.4879 0.8143 -0.7437 0.0768 1.4212 -1.7888 1.2653 -3.4070 4.0744 1.8240 -4.1721 5.1952 -1.7092 1.7080 -3.4770 0.2105 0.1388 0.3196 -0.0317 -3.0913 3.9778 -0.5688 2.1207 -2.8833 0.2118 3.2857 -3.4681
-2.8772 0.8160 -2.8973 1.3362 0.1826 0.6778 -0.0097 -2.1670 5.2595 1.0977 3.7045 -2.5051 1.4782 2.0069 -4.2235 1.8126 -5.8094 4.3203 2.0484 -4.1539 5.8778 -1.1938 3.1114 -5.4654 -2.2994 2.4650 -4.6635 -0.1968 3.7840 -4.5527 -0.5618 -0.6200 2.8240 -0.9489 0.0891 1.6326 -0.0231 -1.8431 2.7878 -0.6450 1.2038 -0.4911 -0.1561 1.1450 -1.7360 1.1801 -3.7035 3.6848 1.7040 -4.5411 4.7752 -1.8404 1.7427 -3.4351 -0.1304 0.4622 0.6377 0.4359 -2.6133 3.9099 -0.6174 1.9090 -2.8865 0.4068 2.8291 -3.5312
-1.5264 -0.2763 -3.3488 -0.3320 0.9831 -0.0597 -1.0774 -2.5822 3.6650 0.8255 3.7407 -1.7498 0.6878 3.7938 -4.1967 -0.0776 -3.1572 6.3809 1.2731 -4.9701 6.0731 -2.4014 3.4431 -3.7201 -2.6100 1.9717 -3.4416 -1.3423 4.0153 -2.8068 0.4049 -1.4653 1.3848 1.0587 -1.0490 0.1780 0.9936 -2.2521 2.2869 1.4538 0.3601 -1.7231 1.0565 1.0145 -2.8185 1.2015 -3.2604 4.4349 0.7868 -3.9213 5.6792 -1.3425 1.2015 -3.2563 0.7282 0.0432 -0.5223 0.3983 -2.7205 3.5111 -0.1535 1.7892 -3.0093 -0.0054 3.2984 -2.9408
-2.6871 0.2442 -2.4026 0.9717 0.9077 1.3602 3.2202 -2.5315 4.1562 0.1378 4.2305 -2.0986 1.1196 2.7023 -3.7557 -0.8321 -4.0192 3.4449 -1.1903 -3.3505 5.5979 -1.7335 2.8287 -5.0772 -2.6191 1.9175 -4.2572 -1.0347 3.8252 -4.1824 1.9492 -1.9224 1.5123 1.3269 -1.3391 0.3577 1.2748 -2.1142 2.6484 0.2474 0.3299 -0.9786 -0.3307 1.5140 -1.1979 1.0135 -3.3941 4.7173 -0.4475 -3.5374 4.6468 -1.9778 1.4100 -3.0049 0.8637 -0.0864 0.2531 1.7766 -2.7233 3.8460 -0.8675 1.9584 -2.4702 -0.1814 3.1497 -3.1155
-2.1797 0.3521 -4.6327 -0.1123 -1.8516 -0.6026 2.5753 -3.1352 3.8507 -0.7998 3.4718 -1.1074 1.0609 3.1956 -2.6994 0.8883 -4.8557 5.5537 -0.2077 -3.3796 6.9035 -1.0841 4.0219 -4.8377 -1.9221 2.7885 -5.0837 -1.0253 4.3219 -3.3599 1.7130 -1.3180 1.6846 1.3652 -0.3361 0.6923 0.9697 -1.5390 2.7723 0.3084 0.5075 -1.3046 -0.7724 0.6763 -2.0772 0.2235 -2.8175 4.6397 0.3090 -3.6689 5.8345 -1.6421 1.6550 -4.1448 0.5390 -0.5375 -0.3445 1.2187 -2.5211 3.7951 -0.9750 1.8035 -2.9797 -0.4505 3.1660 -2.5522
-1.2470 0.2199 -4.4419 1.5819 -0.7349 -0.2066 0.4420 -4.4577 3.4769 -0.7531 3.7754 -1.0845 1.0986 3.9078 -2.6949 2.1754 -2.2114 6.6385 1.1114 -4.2010 6.2824 -1.1599 4.0311 -4.8464 -1.6492 2.6118 -5.0292 -1.2104 4.4156 -3.3858 -0.1954 -2.5691 1.3020 -0.6621 -1.6786 0.2779 -0.0648 -2.1820 2.5737 -0.4994 0.0513 -1.3779 0.1084 1.0861 -1.9658 0.9040 -2.3579 4.7481 1.3990 -3.0685 5.9378 -1.0996 1.6455 -4.0282 0.1088 -0.8348 -0.4205 0.4789 -2.9772 3.6408 -0.5141 2.0301 -2.8748 -0.3535 3.4988 -2.5215
-3.4149 2.1151 -3.1501 -0.8676 1.5658 1.4706 -0.2920 -2.5062 4.8224 1.2330 3.4428 -2.4453 1.2358 1.2863 -3.6287 0.7724 -5.0472 5.8281 3.0227 -4.6714 5.7636 -0.6000 2.7482 -5.6889 -1.9833 2.8066 -5.0799 0.4159 3.3270 -4.7312 0.0523 -1.1798 2.1988 -0.0252 -0.6925 0.8540 0.5844 -2.3701 2.4848 -0.3733 0.8938 -0.8966 -1.0589 1.8799 -1.4800 1.6350 -3.8735 4.0128 1.9014 -4.5239 5.3035 -2.0329 2.3773 -3.6475 -0.4377 0.5277 0.4912 0.7129 -2.9261 3.8055 -0.9334 2.2515 -2.8764 0.4532 2.5688 -3.4107
-1.0728 0.0679 -4.3905 2.3942 -0.6179 -0.7756 2.6634 -4.1162 3.2915 -0.9766 3.4724 -0.8482 0.5349 4.1294 -2.6772 -0.2446 -1.4486 5.1838 -0.9111 -3.3586 6.2444 -1.9843 3.7974 -4.4904 -2.1256 2.3102 -4.7296 -1.9069 4.0842 -3.0087 1.2641 -2.1207 1.5454 0.4758 -1.3687 0.6113 0.7189 -2.6972 2.6202 0.0284 0.0852 -1.2483 0.3530 1.1088 -2.0460 1.0894 -3.3349 4.9676 -0.1463 -2.7554 5.5084 -1.2241 1.4636 -3.8871 0.9476 -0.6537 -0.4181 1.4513 -3.3416 3.6787 -0.5918 1.9250 -2.7886 -0.7368 3.3694 -2.3430
-1.6042 -0.3708 -2.1679 3.2857 0.8700 -0.1567 -1.9294 -2.3963 2.4084 0.1563 4.2287 -2.0396 0.7374 3.1850 -4.1836 1.6834 -3.9683 4.2941 0.4399 -3.9229 6.2057 -2.3481 2.6516 -4.4065 -2.6134 1.4405 -3.5414 -1.6091 3.7091 -3.6219 0.6879 -1.3510 1.4942 1.8810 -0.6390 1.1454 0.4853 -1.8280 2.7209 0.8136 0.6384 -0.6150 0.7892 1.4035 -1.7050 -0.5992 -3.5265 4.1083 0.5448 -3.7816 4.9974 -1.4528 1.0179 -2.6940 1.9673 0.2510 0.1505 -0.6407 -2.6246 3.1208 -0.3875 1.8132 -2.4516 -0.2875 3.2003 -3.0627
-3.1713 1.4622 -4.1056 -2.2691 -0.1203 0.6230 -0.0525 -2.2018 5.0397 0.5748 3.5870 -1.7761 1.4559 1.7610 -3.1866 1.9190 -3.9387 6.4692 1.9490 -5.7373 5.0641 -0.0582 3.2343 -5.4877 -1.5210 2.8817 -5.3339 0.4789 3.7808 -4.1871 0.0283 -1.1401 2.2278 0.1705 -0.3823 1.0152 1.0614 -1.7144 2.8516 -0.5424 0.7327 -0.9832 -1.3875 1.3637 -1.8056 1.8653 -3.5404 4.1767 1.8684 -4.5349 5.2591 -1.8388 2.1338 -4.0751 -0.8385 0.0783 0.2621 0.9655 -2.5629 4.0147 -1.0006 2.0732 -3.0183 0.3430 2.7844 -3.0443
-1.6229 -0.3489 -3.3764 3.1197 -0.7500 -1.3648 -1.7710 -1.2115 3.1444 0.1234 3.5869 -1.0028 0.7681 3.7047 -3.3694 1.3155 -4.1240 4.1788 0.8940 -3.4771 6.3253 -2.3145 3.3873 -3.8986 -2.6101 1.9149 -3.7222 -1.5923 3.9280 -2.6871 0.5793 -1.5223 1.3465 1.7664 -1.3856 0.5575 0.6253 -1.7201 2.6635 0.7088 -0.0375 -1.1669 0.7409 0.9172 -2.0987 -0.5251 -2.7472 4.5679 0.6445 -3.4389 5.1302 -1.4708 1.1200 -3.1637 1.8433 -0.7181 -0.5993 -0.5250 -1.9511 3.4924 -0.4088 1.6830 -2.5491 -0.2886 3.1903 -2.4076
-1.7628 0.0301 -1.0710 2.7042 2.7386 0.7259 -0.0540 -3.2758 1.7137 0.1621 4.0801 -3.1234 0.7309 2.1104 -4.4745 -1.4654 -4.5580 3.9909 0.2647 -5.2133 5.3273 -2.3498 1.6040 -4.5162 -2.6765 0.9651 -3.1860 -1.5996 2.8981 -4.3066 1.2515 -0.6384 1.7200 2.0439 0.5503 1.6012 1.2982 -1.4485 2.7786 0.6366 1.6338 -0.0917 0.6699 1.7408 -1.4229 0.3798 -3.1483 4.1722 -0.2344 -4.4327 4.5316 -1.5537 0.9871 -2.1965 1.8060 1.5518 0.7447 0.5213 -2.6508 2.9386 -0.4679 1.7803 -2.3260 -0.3050 2.6952 -3.5298
-2.3929 0.3473 -1.4978 1.7437 2.6227 1.4836 -0.8818 -3.5045 1.2045 0.3394 4.1923 -2.9187 1.3880 2.1303 -3.7142 1.8743 -3.3220 4.6194 0.2951 -4.5744 5.6818 -1.4573 1.5826 -4.9982 -2.3211 1.0771 -3.8676 -0.7841 2.8795 -4.6186 0.6627 -1.0089 1.6779 1.1674 0.3010 1.9669 0.3198 -1.8561 2.6454 0.5462 1.1877 -0.2065 -0.0634 2.1321 -0.9247 0.0988 -4.1779 3.3504 0.7241 -4.0292 4.6767 -1.6917 1.1844 -2.5146 1.1049 1.3300 1.1139 -0.1252 -3.2065 2.4566 -0.6060 1.9478 -2.2608 0.0589 2.7650 -3.3556
-1.6477 -0.1234 -1.1686 3.0617 2.3433 0.3210 -1.0816 -2.3456 2.5150 0.1892 4.0029 -3.1798 0.7649 2.0708 -4.5644 -1.2909 -4.2866 4.7591 0.4071 -5.7461 4.3199 -2.8070 2.2705 -3.7785 -2.5756 0.8733 -3.2554 -1.5480 2.8096 -4.4150 0.9793 -0.2711 2.1458 1.9967 0.6532 1.7331 1.2593 -1.4562 2.6901 0.7752 1.4573 -0.2124 0.7676 1.6790 -1.5271 0.6975 -3.4331 3.8934 -0.0682 -4.6210 4.2939 -1.4532 0.8626 -2.2699 1.9356 1.4210 0.6376 0.2964 -2.4566 3.0714 -0.3855 1.6774 -2.4095 -0.2727 2.6188 -3.5996
-3.0899 1.3985 -2.5783 -0.1558 1.9597 1.6335 0.1894 -1.5235 5.6535 1.6319 3.0561 -2.7623 1.1664 1.1221 -4.1883 2.1966 -4.1352 2.7749 1.4498 -5.8088 4.1349 -1.1677 3.0757 -5.3589 -2.0162 1.9679 -4.7745 0.1555 3.3256 -4.6675 -0.0764 -0.7913 2.8031 -0.3777 -0.5097 1.4323 0.1738 -2.0379 3.2075 -0.6774 0.8006 -0.5377 -0.4669 1.8841 -1.2876 1.2440 -3.5475 4.8184 1.5919 -4.6230 3.8798 -1.8503 1.7946 -3.3033 -0.3973 0.7027 0.8689 0.5785 -2.4225 4.5314 -0.6478 1.9554 -2.7191 0.5457 2.3565 -3.5607
-1.6077 -0.1487 -1.1002 3.5359 1.4951 -0.4346 -0.8116 -1.4711 3.7394 0.1498 4.0867 -2.8739 0.3501 2.3379 -4.5914 -1.6772 -4.2556 3.8660 0.0099 -5.3800 4.9101 -2.7239 1.9467 -4.1058 -2.8441 1.1461 -2.8292 -1.8614 3.1649 -3.8767 1.3484 -0.3546 2.0684 2.4349 0.2540 1.3571 1.4574 -1.5382 2.6732 1.0492 1.1434 -0.4343 0.8351 1.4826 -1.7062 0.5156 -3.5735 3.4662 -0.3869 -4.4705 4.1981 -1.5522 0.9607 -2.0963 2.3201 0.9146 0.1981 0.3774 -2.2539 3.2995 -0.4558 1.7133 -2.3329 -0.4631 2.8000 -3.3946
-1.3737 -0.1039 -4.2187 2.9530 -1.0261 -1.5648 -1.6178 -0.9212 3.2955 -0.2376 2.9642 -0.5523 0.7423 3.7914 -2.6481 1.9034 -2.9286 4.9048 0.4187 -4.4827 5.6665 -2.1980 3.6117 -3.7296 -2.4397 2.1517 -4.0431 -1.7011 3.7696 -2.3115 0.5236 -1.5561 1.3082 1.6603 -1.5256 0.4367 0.6529 -1.7043 2.6256 0.6494 -0.0649 -1.2273 0.6708 0.7263 -2.3027 -0.3797 -2.4674 4.7109 0.6635 -3.4214 5.1139 -1.3508 1.2400 -3.5719 1.7296 -0.8747 -0.7302 -0.4337 -1.7856 3.5610 -0.4244 1.6077 -2.6634 -0.4111 2.9999 -2.0595
-1.0802 -0.3383 -3.7170 3.3404 -0.2628 -1.1596 -1.7585 -3.0354 2.2049 -0.3576 3.3278 -0.5705 0.4943 4.0427 -2.7579 0.1517 -1.8488 6.2277 1.6537 -3.1761 5.1252 -2.3705 3.2669 -3.7824 -2.4400 1.7573 -3.8533 -1.9194 3.6956 -2.4039 0.6825 -1.8457 1.0618 1.9034 -1.4438 0.4266 0.6555 -2.3754 2.2853 0.8551 0.0668 -1.1614 0.8668 1.0717 -2.0392 -0.5914 -2.8925 4.3331 0.5540 -2.6606 5.2251 -1.2258 1.0865 -3.2971 2.0018 -0.5794 -0.5903 -0.5368 -2.7375 3.0048 -0.3465 1.7185 -2.4926 -0.5324 3.1629 -2.0693
-1.9604 0.1231 -1.1522 3.0220 1.7683 0.5986 -2.0703 -1.7568 3.1471 0.6391 3.8615 -3.0314 0.9942 1.8566 -4.3938 0.8078 -4.9735 4.8941 1.5678 -4.2976 2.8465 -2.1497 1.8199 -4.5813 -2.6285 1.2322 -3.2734 -1.2055 2.9707 -4.3288 0.3770 -0.3422 2.3265 1.5750 0.3586 1.9697 0.4155 -1.5211 2.9436 0.6344 1.3449 -0.0501 0.7340 1.4484 -1.3766 -0.5833 -3.6233 3.6698 0.7268 -4.2951 3.7290 -1.5547 1.0553 -2.2448 1.7219 1.0905 0.8591 -0.7106 -2.3555 3.2575 -0.3527 1.6689 -2.3173 0.0001 2.5660 -3.4920
-3.1288 1.8932 -2.3968 0.1116 1.9496 1.6189 0.0112 -1.6462 5.6878 1.5279 3.2904 -2.9327 1.3279 0.9650 -3.7021 2.2806 -5.5097 4.3154 1.4804 -4.3996 2.4889 -0.9444 2.1005 -5.5475 -2.1634 2.2779 -4.6699 0.2489 2.8015 -4.9405 -0.1815 -0.7471 2.8283 -0.4892 -0.4529 1.4590 0.0573 -2.0005 3.2136 -0.6356 0.8687 -0.5295 -0.4292 1.9670 -1.2605 1.1415 -3.5791 4.7347 1.6261 -4.5027 3.6937 -1.8938 2.0780 -3.2130 -0.3486 0.7420 0.8747 0.4717 -2.4412 4.5153 -0.6515 2.0687 -2.6883 0.5809 2.2766 -3.5494
-2.6103 0.8957 -1.2193 1.7402 3.1985 1.1708 -0.7112 -2.9429 2.1586 0.7704 3.5949 -3.5907 1.3244 1.2238 -3.8013 0.4400 -5.5071 3.1685 0.3743 -5.2139 5.4302 -2.1358 1.9938 -4.7460 -2.4569 0.9421 -3.7105 -0.6410 2.1190 -4.9278 0.7222 -0.3551 2.0688 1.2288 0.9883 2.0850 0.8077 -1.1849 3.1088 0.4661 1.4811 -0.1658 0.0265 2.2965 -1.1246 0.9015 -3.3857 4.0172 0.5018 -4.7711 4.2987 -1.7986 1.2717 -2.4119 1.1083 1.8527 1.0684 0.3505 -2.5510 3.1284 -0.5824 1.8545 -2.3663 0.1734 2.1991 -3.6392
-2.7946 0.9458 -1.7224 0.6844 2.8686 1.8303 -0.6971 -3.6403 1.2188 0.9592 3.8327 -3.0144 1.5835 1.4912 -3.4039 2.3962 -4.4902 4.5180 0.6259 -3.4081 5.4842 -1.0579 1.4117 -5.1150 -2.1867 1.2712 -4.1194 -0.1756 2.5825 -4.7529 0.2131 -0.8984 1.8486 0.4571 0.4683 2.2021 0.2178 -1.8795 2.7486 -0.0754 1.3115 -0.0074 -0.2569 2.2503 -0.9362 0.5030 -4.2535 3.2489 1.1528 -3.9637 4.5356 -1.7716 1.4367 -2.6913 0.3372 1.4999 1.3579 0.0634 -3.2764 2.4472 -0.5929 1.9820 -2.3233 0.4148 2.4576 -3.3541
-1.0656 0.4760 -4.7323 -1.9980 -2.3705 -0.8835 0.8630 -4.1514 3.2815 -1.0897 3.5342 -0.9075 1.1961 3.4330 -1.8017 2.1450 -2.0565 6.8080 1.3616 -4.0869 6.1156 -0.1628 4.1888 -4.5235 -0.8392 2.9423 -5.0494 -0.6184 4.4616 -3.1082 0.0187 -2.1159 1.3215 -0.1378 -1.1750 0.2565 0.7538 -1.8206 2.3954 -1.2306 -0.1622 -1.6619 -0.3496 0.8156 -1.8930 1.2752 -2.1358 4.7027 1.5871 -2.9068 5.9165 -0.8068 1.7969 -4.0887 -1.0345 -1.2448 -0.7338 0.9518 -2.6845 3.5265 -0.5463 1.9482 -2.7737 -0.2729 3.3142 -2.1671
-3.3784 2.0934 -3.2039 -1.9366 0.9132 1.4463 0.3844 -1.3512 5.6451 1.3427 2.9852 -2.2396 1.1535 0.7675 -3.2907 2.6882 -5.1089 4.1857 0.9456 -4.6902 2.7652 -0.3517 2.3226 -5.5578 -1.7523 2.5586 -5.0365 0.6630 2.8216 -4.5566 0.2470 -0.5841 2.7890 0.2891 -0.1862 1.4101 0.8474 -1.6985 3.2081 -0.5550 0.7609 -0.6376 -1.1630 1.7355 -1.3249 1.1975 -3.4960 4.8301 1.5739 -4.4612 3.7845 -1.9439 2.2047 -3.5941 -0.6727 0.4966 0.7739 0.8200 -2.2449 4.5376 -0.9203 2.0161 -2.7349 0.5218 2.1451 -3.1990
-3.3646 2.0614 -3.2785 -1.4722 1.5559 1.6565 -0.8257 -2.2048 5.2507 1.3179 3.0301 -2.1784 1.1872 0.8093 -3.2485 3.0486 -3.3808 3.5509 2.1793 -5.4801 3.8013 -0.2746 2.3531 -5.5407 -1.6924 2.5665 -5.0624 0.7021 2.8655 -4.5106 -0.0690 -0.8759 2.6877 0.0242 -0.4020 1.3376 0.2815 -2.1228 3.0133 -0.4021 1.0084 -0.5428 -1.2141 1.6973 -1.3499 1.1073 -3.6041 4.7924 2.1254 -4.2721 3.9719 -1.9202 2.2023 -3.6270 -0.6132 0.6619 0.8337 0.2592 -2.6710 4.3431 -0.9192 2.0231 -2.7390 0.5345 2.1787 -3.1614
-0.9775 0.1483 -4.4821 3.0727 -0.9181 -1.5773 -1.9344 -2.3712 2.6160 -0.5565 2.6424 -0.2765 0.5516 3.8910 -2.0830 1.7157 -1.7468 4.9212 0.9083 -3.4343 6.2297 -2.2148 3.6547 -3.5291 -2.2821 2.2514 -4.0921 -1.8976 3.6116 -2.0522 0.5071 -1.8515 1.0712 1.6826 -1.7014 0.2658 0.5499 -2.3324 2.3143 0.6903 -0.1538 -1.3318 0.7562 0.8238 -2.2384 -0.4615 -2.4855 4.5449 0.7859 -2.6496 5.3024 -1.1630 1.3667 -3.6422 1.7885 -0.9305 -0.8235 -0.5704 -2.3915 3.2147 -0.3798 1.6563 -2.5839 -0.5713 2.9205 -1.7682
-0.7033 0.8945 -5.2892 0.2091 -2.2891 -1.4756 0.5571 -4.8660 3.0269 -1.6209 2.7818 -0.8448 0.7109 3.2621 -1.4528 0.1952 -1.2407 5.4432 2.0665 -2.0218 6.4874 -1.7456 4.2405 -3.9995 -0.9158 3.3511 -4.8950 -1.1004 4.3488 -2.6392 0.7072 -2.3409 1.4470 0.5110 -1.1321 0.6985 0.4813 -2.3838 2.7602 0.1865 0.2009 -1.2761 -0.5242 0.4941 -2.3715 0.9056 -3.4054 4.9448 1.1602 -2.1561 5.6799 -0.7408 1.9970 -4.2871 0.2740 -1.0733 -0.6180 0.6998 -3.5094 3.6258 -0.6331 1.8256 -2.9528 -0.6803 3.0223 -2.0121
-1.3565 -0.5759 -1.1987 3.4677 1.9435 -0.1623 1.6602 -3.7291 4.0249 -0.2268 4.0633 -2.4256 0.1712 2.5940 -4.3424 -1.1250 -4.6153 3.4010 -2.4158 -2.8504 4.0592 -2.8264 1.7242 -3.8839 -2.7929 0.7473 -2.7319 -2.1162 3.0045 -3.5162 1.8139 -0.9506 1.6660 2.7146 0.0614 1.1990 1.9485 -1.5932 2.8287 1.1069 1.0974 -0.3200 0.8259 1.4669 -1.5716 -0.2918 -2.4594 3.1054 -1.3715 -3.3062 3.6182 -1.4691 0.6525 -2.0385 2.4238 0.9643 0.2527 1.0245 -2.5935 3.3039 -0.4933 1.5780 -2.1749 -0.6720 2.7764 -3.0930
-1.0488 -0.9408 -2.0184 3.8012 1.3138 -0.7915 0.5450 -3.7842 2.1329 -0.3325 3.8698 -1.2712 -0.1325 3.3765 -3.6639 -2.0004 -3.4844 3.6299 -1.3124 -2.6313 5.6312 -2.9888 2.1010 -3.3137 -2.7545 0.7432 -2.6911 -2.3021 3.1775 -2.5075 2.2467 -1.6663 1.0047 3.1282 -0.6622 0.4781 1.5240 -1.4769 2.1112 1.3914 0.5947 -0.6741 0.9504 1.2578 -1.7446 -0.2551 -1.9419 3.6230 -1.1954 -2.7420 4.4203 -1.3463 0.5043 -2.2419 2.7676 0.3457 -0.3276 0.5622 -2.3921 2.6638 -0.4445 1.4963 -2.0764 -0.8034 2.9416 -2.3733
-1.0044 -0.8167 -2.9739 3.8302 0.4810 -1.5650 0.3539 -3.7188 2.4051 -0.3524 3.2642 -0.3431 -0.1941 3.8404 -2.7265 -2.0640 -2.8340 3.8966 -1.0475 -1.9110 5.7220 -2.9957 2.4533 -2.9361 -2.7556 0.9606 -2.8980 -2.3338 3.1126 -1.7477 2.1363 -1.9929 0.7874 3.0625 -1.1765 0.0549 1.5833 -1.5850 1.9312 1.3813 0.0866 -1.1670 0.9551 1.1148 -1.9031 -0.1515 -1.5589 3.5559 -1.0916 -2.1371 4.5232 -1.3355 0.5918 -2.6095 2.7433 -0.2490 -0.8571 0.5521 -2.2652 2.6641 -0.4442 1.4562 -2.0804 -0.8277 2.8835 -1.7331
-2.9060 1.3800 -3.3423 -3.1354 -0.9553 0.7216 -0.5253 -2.2204 5.3254 1.3771 2.8317 -1.4106 1.7930 1.0829 -3.0872 2.2330 -3.4968 2.1727 3.7922 -3.3480 3.8345 0.1685 2.9465 -5.0003 -1.2899 2.7479 -4.6547 0.9522 3.2978 -3.7574 -0.8417 -0.9642 2.6523 -0.9022 -0.1547 1.4753 0.3274 -1.3962 3.1295 -1.8094 0.6711 -0.6025 -0.7385 0.7655 -1.3975 1.4811 -3.1875 4.3505 2.6345 -3.3087 3.4486 -1.5171 1.9166 -3.4321 -1.8754 -0.1776 0.5579 0.4802 -2.3078 4.2300 -0.5538 1.6659 -2.5204 0.8557 2.2114 -2.6934
-1.1366 -0.7685 -0.8090 3.9190 0.8931 -1.1059 0.5822 -1.4758 4.2744 -0.0933 3.8382 -2.1351 -0.1571 2.4214 -4.1465 -1.4947 -4.5993 3.1129 -2.3161 -2.5538 3.7294 -3.0073 1.6288 -3.1298 -2.8072 0.6430 -2.0010 -2.2091 2.8844 -2.8656 2.3152 -0.3714 2.1121 3.2218 0.0644 1.0855 1.6360 -1.5170 2.0085 1.4892 0.7216 -0.4819 0.9990 1.1404 -1.6480 -0.3719 -2.7541 2.3517 -1.4861 -3.2492 3.1699 -1.3770 0.4772 -1.5943 2.8664 0.5513 -0.1115 0.5555 -1.9325 2.8569 -0.4100 1.3596 -1.9256 -0.7179 2.5981 -2.7471
-1.1698 -1.0544 -1.2500 3.9283 0.7939 -1.2777 0.7104 -1.4020 4.2049 -0.0609 3.7042 -1.8910 -0.1900 2.5838 -4.0619 -2.5819 -3.3609 2.5484 -1.2952 -3.5218 4.4295 -3.1416 2.0430 -1.9539 -2.8117 0.5866 -2.1816 -2.2107 2.9223 -2.7556 2.3869 -0.3932 1.9974 3.2757 0.0015 0.9399 1.6005 -1.4671 1.8791 1.5137 0.7562 -0.5583 0.9832 0.9336 -1.7694 -0.4131 -2.6604 2.3644 -1.4468 -3.1984 3.2644 -1.3909 0.3065 -1.8164 2.8958 0.4936 -0.2476 0.5665 -1.8563 2.7943 -0.4190 1.2203 -2.0158 -0.7293 2.5690 -2.6431
-0.1076 2.0307 -5.0412 2.5634 -1.6529 -2.7390 0.8744 -0.4480 3.6801 -1.8830 0.5941 -0.6862 -0.3405 2.4782 -0.3459 -1.3886 -1.9172 5.2558 0.0201 -3.4638 6.1696 -2.1765 3.9378 -2.4358 -1.7427 3.4240 -3.7893 -2.4890 2.7866 -1.5109 1.6475 -1.3198 0.9465 2.2045 -1.7103 -0.3191 1.4523 -2.1759 1.9522 1.0953 0.0297 -1.6234 0.3108 0.3753 -2.6492 0.2284 -2.8553 3.8828 -0.3336 -2.7593 5.2375 -0.7907 2.2702 -3.7376 1.9252 -1.1365 -1.4982 0.8190 -1.8611 3.2088 -0.5803 1.5298 -2.6282 -1.3083 1.8436 -1.3290
0.2985 2.3990 -4.9240 3.4001 -0.6523 -2.1899 -1.0187 -2.0114 2.6520 -1.8445 0.3271 -1.0002 -0.7909 2.4487 -0.3369 -1.0010 -1.8453 5.6080 0.2010 -3.6722 6.2536 -2.5102 3.6734 -2.6432 -1.7611 3.3601 -3.9178 -2.7372 2.4129 -1.8444 1.2426 -1.5341 0.8241 2.2735 -1.4608 -0.1724 1.4084 -2.1171 2.0131 1.2797 0.3905 -1.4261 0.6306 0.6644 -2.5630 0.8091 -2.4955 4.2889 -0.0363 -2.7770 5.4575 -0.6233 2.4015 -3.7517 2.2702 -0.6299 -1.2238 0.4050 -2.2168 3.0439 -0.4580 1.6302 -2.6553 -1.4374 1.7046 -1.4923
-2.6707 1.6955 -0.5826 1.9902 3.6054 1.1097 -0.3240 -2.0412 3.9977 1.2051 2.1241 -3.5561 1.0665 -0.1954 -2.7553 -1.1306 -4.3036 2.2567 0.8881 -5.1797 1.6534 -1.8611 -0.0748 -3.8947 -2.6762 0.6632 -2.8571 -0.6426 0.7301 -4.2805 0.7296 0.5659 3.0333 1.3530 1.7948 2.6220 1.1058 -0.6138 2.5318 0.4271 1.7677 0.3826 0.2166 2.2129 -0.8553 0.6141 -2.8300 1.8164 0.1789 -4.2273 1.9393 -1.8628 1.2904 -1.7696 1.2220 2.3691 1.4182 0.4505 -1.8742 2.7383 -0.5302 1.4794 -1.8617 0.2508 1.0413 -3.0864

>  <OB_ATOM_TYPES> (1cbsA1)
C.3 C.3 C.3 C.3 C.3 O.co2 O.co2 C.3 C.3 C.3 C.2 C.2 C.2 C.2 C.2 C.2 C.2 C.2 C.2 C.2 C.2 C.3

>  <ENSEMBLE_RMSD> (1cbsA1)
0.576 0.680 0.796 1.031 1.045 1.081 1.097 1.103 1.139 1.166 1.207 1.224 1.229 1.304 1.313 1.345 1.384 1.393 1.416 1.487 1.545 1.572 1.610 1.679 1.730 1.785 1.788 1.788 1.812 1.821 1.851 1.873 1.875 1.885 1.952 1.968 2.045 2.068 2.095 2.097 2.128 2.183 2.286 2.467 2.530 2.549 2.560 2.627 2.648 2.948

$$$$
