
 OpenBabel03071213D

 19 20  0  0  0  0  0  0  0  0999 V2000
   -1.4350    2.1450   10.8200 C   0  0  0  0  0
   -3.5160    7.4560   12.5630 C   0  0  0  0  0
   -5.3270   -0.5200   16.1920 N   0  0  0  0  0
   -7.3100    0.9870   16.7290 O   0  0  0  0  0
   -5.3490    1.0410   18.2200 O   0  0  0  0  0
   -6.3310    6.2230   13.6410 O   0  0  0  0  0
   -4.6970    6.8100   15.4220 O   0  0  0  0  0
   -1.3550    3.2200   11.9060 C   0  0  0  0  0
   -2.5630    5.4380   13.6650 C   0  0  0  0  0
   -2.6210    3.1750   12.6490 N   0  0  0  0  0
   -6.1860    3.6410   15.7000 S   0  0  0  0  0
   -3.9920    2.3040   15.3640 C   0  0  0  0  0
   -3.8020    6.0150   13.0230 C   0  0  0  0  0
   -2.6000    3.9180   13.9220 C   0  0  0  0  0
   -5.2590    2.2490   15.9490 C   0  0  0  0  0
   -3.8200    3.5480   14.6840 C   0  0  0  0  0
   -4.9690    4.3680   14.7880 C   0  0  0  0  0
   -5.8850    0.9410   16.8910 S   0  0  0  0  0
   -5.0600    6.0120   14.2810 S   0  0  0  0  0
  1  8  1  0  0  0
  2 13  1  0  0  0
  3 18  1  0  0  0
  4 18  2  0  0  0
  5 18  2  0  0  0
  6 19  2  0  0  0
  7 19  2  0  0  0
  8 10  1  0  0  0
  9 13  1  0  0  0
  9 14  1  0  0  0
 10 14  1  0  0  0
 11 15  1  0  0  0
 11 17  1  0  0  0
 12 15  2  0  0  0
 12 16  1  0  0  0
 13 19  1  0  0  0
 14 16  1  0  0  0
 15 18  1  0  0  0
 16 17  2  0  0  0
 17 19  1  0  0  0
M  END
>  <MOLID> (1cilA1)
1cilA1

>  <SMILES_CANONICAL> (1cilA1)
CCN[C@H]1C[C@H](C)S(=O)(=O)c2c1cc(s2)S(=O)(=O)N	

>  <FINGERPRINT> (1cilA1)
0001000000000001000000000001000000000101010000000001001000000000000000010001000001101011000001101000000110111000000001100100000000000000000101000000000100000011000000000010000100000000001000000001100001000010000000000000000000100100000000000001000000000000000001011000100000001000010000000000000000001010110000001100000000000000011100000010001000000001111001000001101011000000111000000001101100100001000000100001111000000100001001100001001100000001100000100000000000010100000000000001000000000000010000010000000000001100000000000000000010000001000000100000001000100000000000000000000000000001000000000011000000000000000000001110001000000001011000000000000000000000000000000101100010000100100100001000001100000000100000000000001101100000000110100000010000000010000110010000110000000010111100000000000001110100000000000010000000000000000000000000000000001000000000001001010000000001000000000000110100000000011000000000000100000000001000000000011100000000001100100001000000000000100000000000000000000001110000010100101001100001

>  <MACCS166> (1cilA1)
000000000000000000001000010000011001000000000000011000100111100100100000100100001011000100000101011001011101001101101001000100101110100111011111010111101011011110111000

>  <OB_MW> (1cilA1)
324.027

>  <OB_logP> (1cilA1)
3.8648

>  <OB_PSA> (1cilA1)
151.33

>  <OB_MR> (1cilA1)
73.2891

>  <OB_ATOMIC_CHARGES> (1cilA1)
0.020293817 0.025806702 0.0397093756 -0.1498054235 -0.1498054235 -0.168209585 -0.168209585 0.0890746212 0.0458912098 -0.2149407865 -0.0491719675 0.0255703381 0.1361486249 0.0983989601 0.1553939728 0.0187206807 0.1335208351 0.0992012774 0.0124123562

>  <MCT_HBD> (1cilA1)
2

>  <MCT_HBA> (1cilA1)
6

>  <ENSEMBLE_TOTAL> (1cilA1)
49

>  <ENSEMBLE_COORDS> (1cilA1)
2.8848 -1.4851 -3.7278 0.8038 3.8259 -1.9848 -1.0072 -4.1501 1.6442 -2.9902 -2.6431 2.1812 -1.0292 -2.5891 3.6722 -2.0112 2.5929 -0.9068 -0.3772 3.1799 0.8742 2.9648 -0.4101 -2.6418 1.7568 1.8079 -0.8828 1.6988 -0.4551 -1.8988 -1.8662 0.0109 1.1522 0.3278 -1.3261 0.8162 0.5178 2.3849 -1.5248 1.7198 0.2879 -0.6258 -0.9392 -1.3811 1.4012 0.4998 -0.0821 0.1362 -0.6492 0.7379 0.2402 -1.5652 -2.6891 2.3432 -0.7402 2.3819 -0.2668
2.3803 -0.7110 -3.6634 0.5884 2.2259 -2.6821 -0.6164 -4.0635 1.4883 -2.8842 -2.9984 1.9428 -0.9808 -2.5489 3.5119 -1.7377 2.7995 -1.0695 -0.3244 3.3305 0.9411 1.5508 -0.7502 -2.4050 2.0363 1.8884 -0.6522 2.4223 -0.4690 -1.2759 -2.0187 0.0800 1.0014 0.2304 -1.2091 0.8205 0.8548 2.6144 -1.2516 1.7914 0.4306 -0.3303 -1.0372 -1.3393 1.2409 0.4480 0.0841 0.1996 -0.6453 0.8589 0.2575 -1.4703 -2.7358 2.1560 -0.5876 2.5130 -0.2300
2.4710 -2.2757 -2.7805 0.0919 2.5634 -2.5961 -0.3812 -4.0176 1.3438 -2.7296 -3.1268 1.7415 -0.8990 -2.5332 3.3472 -1.8770 3.1261 -0.5278 -0.0943 3.3153 1.2350 2.8201 -1.0734 -1.9393 1.8452 2.0139 -0.8778 1.7281 -0.1202 -2.0393 -1.9576 0.1643 1.2010 0.1386 -1.1756 0.4548 0.6251 2.8434 -1.2121 1.5877 0.5249 -0.7437 -1.0324 -1.3071 1.0977 0.3205 0.1765 -0.0425 -0.6928 0.9782 0.3172 -1.3451 -2.7536 1.9805 -0.6193 2.6773 0.0405
2.7923 -2.1441 -3.3709 1.0730 4.1051 -1.4909 0.0023 -3.8276 2.1409 -2.2867 -3.3137 1.1469 -1.7582 -2.5833 3.4849 -1.6802 2.6696 -1.1414 -0.7378 3.5085 1.0423 2.6981 -1.1476 -2.2395 1.1281 1.6463 -1.8183 1.3151 -0.7216 -2.1176 -1.6579 0.2817 1.7148 0.1428 -1.2100 0.5798 0.9196 2.7628 -0.8261 1.2736 0.3201 -1.1007 -0.8265 -1.2358 1.5108 0.2546 0.0955 -0.0337 -0.6204 0.9702 0.4947 -1.3422 -2.7671 2.1065 -0.6896 2.5912 -0.0825
2.0120 -2.2974 -3.1499 0.9385 4.0599 -1.7292 0.1136 -3.6697 2.3928 -2.0646 -3.5922 1.0700 -1.9517 -2.5218 3.3326 -1.9351 2.8203 -0.8618 -0.2735 3.3799 0.9479 2.5085 -1.2674 -2.1661 1.8296 1.8964 -0.9174 1.5468 -0.1801 -2.1342 -1.8736 0.1403 1.3229 0.2129 -1.2261 0.5856 0.5971 2.6270 -1.4018 1.5765 0.4053 -0.8010 -0.9110 -1.3102 1.3156 0.3540 0.0919 -0.0076 -0.6644 0.9013 0.3230 -1.3296 -2.8110 2.0509 -0.6860 2.5538 -0.1722
2.9781 -2.5493 -2.1975 0.9722 4.1754 -1.5059 -0.4803 -4.0706 1.2623 -2.6611 -3.0074 1.9986 -0.6117 -2.6917 3.3949 -1.7534 2.8016 -1.0893 -0.6984 3.4740 1.1009 2.8427 -1.0503 -2.0444 1.0344 1.7247 -1.9373 1.4485 -0.6633 -2.2287 -1.6438 0.2561 1.6606 -0.0239 -1.2452 0.2868 0.8614 2.8056 -0.8852 1.1694 0.3820 -1.2582 -0.9243 -1.2767 1.2806 0.1312 0.1007 -0.2247 -0.6888 0.9720 0.3901 -1.2299 -2.7653 2.0803 -0.7224 2.6275 -0.0838
3.2628 -1.4675 -3.5199 1.7552 3.1199 -0.0592 -0.7282 -4.0073 1.4785 -2.6910 -2.7869 2.5396 -0.3935 -2.4755 3.4894 -1.8524 2.5804 -1.4742 -1.0253 3.4503 0.7356 2.8895 -1.0536 -2.1184 1.1074 1.6009 -1.9354 1.4677 -0.7543 -2.0987 -1.9474 0.2288 1.3624 0.0546 -1.1988 0.5238 0.7080 2.7899 -1.0974 1.2595 0.3187 -1.1372 -1.0236 -1.2448 1.3231 0.1399 0.0706 -0.1792 -0.8244 0.9173 0.2161 -1.2619 -2.6207 2.3329 -0.8968 2.5324 -0.3817
3.3149 -1.6553 -3.0821 0.0079 2.2576 -2.7161 -1.8311 -3.7198 0.7642 -2.5378 -2.5722 2.9462 -0.1585 -3.3317 2.6761 -1.9936 2.9435 -0.7254 -0.2327 3.4099 1.0087 3.0086 -1.0062 -1.7559 1.7754 1.9737 -0.9449 1.7630 -0.2693 -1.8837 -1.9523 0.1846 1.3124 0.1820 -1.1517 0.6646 0.5218 2.7050 -1.3698 1.5821 0.4960 -0.6605 -0.9750 -1.2549 1.3389 0.3282 0.1665 0.0719 -0.7179 0.9587 0.3535 -1.3646 -2.7543 2.1096 -0.7202 2.6199 -0.1077
3.3054 -1.6540 -2.9343 -0.6302 2.3501 -2.6608 -0.7453 -3.9897 1.0012 -2.9084 -2.8999 1.7868 -0.8854 -2.8193 3.2663 -1.7921 3.2675 -0.1581 0.4493 3.3099 0.9818 2.0982 -1.1696 -2.1680 1.5594 1.7583 -1.5996 2.5669 -0.4375 -1.0024 -1.8723 0.2781 1.3847 0.1325 -1.1564 0.5589 0.3368 2.6541 -1.5398 1.6067 0.5820 -0.6424 -1.0204 -1.2348 1.2430 0.3674 0.1919 0.0746 -0.6270 1.0222 0.4254 -1.4702 -2.7470 1.9378 -0.4712 2.6941 0.0449
2.7121 -2.3949 -1.8735 1.0851 4.0617 -1.6050 -0.4334 -4.0916 1.3253 -2.6519 -3.0977 2.0664 -0.5862 -2.6197 3.3890 -1.7313 2.9450 -0.9793 -0.4248 3.3624 1.1344 2.6872 -0.9745 -2.3836 0.8092 1.6528 -2.1157 2.2592 -0.1068 -1.2981 -1.6578 0.2360 1.6139 -0.1784 -1.3279 0.1495 0.8703 2.6865 -1.0159 0.8725 0.2450 -1.5515 -1.0022 -1.3302 1.2078 -0.0198 0.0185 -0.3835 -0.7345 0.9211 0.3062 -1.2322 -2.7892 2.0972 -0.6430 2.6037 -0.0837
3.3687 -1.4669 -3.4243 1.6728 3.0707 0.1259 -1.1619 -3.9665 1.3432 -2.5357 -2.5453 2.9623 -0.0429 -2.6506 3.2345 -1.7937 2.5395 -1.6238 -1.1861 3.4174 0.6537 2.8903 -1.0997 -2.0420 1.1884 1.6511 -1.8751 1.4934 -0.7083 -2.1294 -1.9941 0.2010 1.2875 0.0473 -1.1986 0.4991 0.7209 2.8016 -1.0158 1.2675 0.3293 -1.1344 -1.0301 -1.2469 1.2997 0.1162 0.0616 -0.2232 -0.8736 0.8919 0.1434 -1.2096 -2.5906 2.3706 -0.9379 2.5091 -0.4518
2.8941 -2.5849 -2.5269 0.3925 4.0751 -1.9979 -0.0901 -3.9192 1.7844 -2.3562 -3.1227 0.9037 -1.7530 -2.7216 3.3033 -1.8622 2.8230 -0.5681 -0.2162 3.5392 1.1979 2.7609 -1.2392 -1.8564 0.7851 1.6325 -2.0331 1.4484 -0.6869 -2.1560 -1.3549 0.3071 1.8988 0.1645 -1.2021 0.4329 0.6859 2.8550 -1.1426 1.2230 0.4198 -1.2349 -0.6836 -1.2403 1.4749 0.3313 0.1457 -0.0740 -0.4286 1.0241 0.5974 -1.3610 -2.7726 1.9035 -0.5799 2.6680 0.0932
3.3246 -1.3610 -3.2243 0.2751 3.8414 -2.2401 -0.0851 -3.7098 2.3081 -2.2637 -3.4608 0.9826 -2.1283 -2.5600 3.3230 -1.8526 3.1270 0.0254 0.5465 3.2960 0.7817 2.3511 -1.5939 -2.0960 1.2971 1.6505 -1.7238 2.3544 -0.4312 -1.2227 -1.5010 0.3078 1.8315 -0.0961 -1.3059 0.3615 0.0312 2.4722 -1.6548 1.0499 0.2074 -1.3315 -0.9396 -1.2834 1.4061 0.1761 0.0302 -0.1342 -0.5333 0.9549 0.5341 -1.5100 -2.7899 2.0298 -0.4963 2.6084 0.0437
3.0559 -2.2314 -2.9382 1.5984 3.1986 0.1720 -1.2355 -3.8963 1.1009 -2.4033 -2.5591 2.9422 0.0907 -2.8332 3.0217 -1.8194 2.5471 -1.6346 -1.2823 3.4450 0.6529 2.8384 -1.1331 -1.9281 1.1953 1.7899 -1.8553 1.5276 -0.5538 -2.1655 -1.9518 0.1950 1.2787 0.1405 -1.1237 0.4801 0.6733 2.9106 -0.9869 1.3035 0.4560 -1.1410 -0.9346 -1.2153 1.2796 0.1646 0.1452 -0.2277 -0.8545 0.9361 0.1440 -1.1257 -2.6275 2.2546 -0.9811 2.5499 -0.4493
2.7174 -0.4620 -3.5255 1.0013 3.6637 -2.0955 -2.6929 -3.4812 1.5007 -1.8787 -2.2907 3.6180 -0.2829 -3.7313 2.3189 -1.8358 2.2353 -1.6046 -0.6872 3.2488 0.3961 1.7617 -0.6595 -2.3756 1.9184 1.8692 -0.6620 2.4955 -0.4878 -1.1334 -2.0517 -0.1282 0.8829 0.3104 -1.2096 1.0110 0.7640 2.2760 -1.5505 1.8071 0.4201 -0.2333 -0.9697 -1.4050 1.3672 0.4595 0.0131 0.2456 -0.7014 0.6756 0.1260 -1.3742 -2.7723 2.3448 -0.7607 2.2256 -0.6307
3.2112 -1.9539 -2.7690 -0.0242 2.2543 -2.7197 -2.4459 -3.4267 0.9311 -2.0002 -2.5341 3.2977 -0.1394 -3.6557 2.0348 -2.0445 2.9065 -0.7313 -0.2962 3.4183 1.0018 3.1308 -0.8425 -1.7532 1.7517 2.0425 -0.9502 1.8286 -0.2084 -1.8712 -1.9411 0.1392 1.2755 0.2379 -1.1335 0.6475 0.4763 2.7337 -1.3789 1.6065 0.5608 -0.6561 -0.9273 -1.2761 1.2992 0.3566 0.1928 0.0666 -0.7141 0.9551 0.3413 -1.3039 -2.7887 2.0492 -0.7628 2.6164 -0.1152
1.1655 -1.7737 -3.1887 1.1766 3.8940 -1.7877 -0.0259 -3.4175 2.9299 -1.6590 -3.7934 1.0017 -2.4185 -2.5525 3.0434 -1.7273 2.6066 -1.2429 -0.3610 3.3155 0.7554 1.4043 -0.3716 -2.6834 2.0411 1.8572 -0.6795 2.3030 -0.4457 -1.5415 -1.9287 0.0332 1.0471 0.3183 -1.2521 0.7983 0.8606 2.4704 -1.3986 1.8279 0.3762 -0.4413 -0.9126 -1.3526 1.3261 0.5039 0.0284 0.1423 -0.5948 0.7959 0.2218 -1.3861 -2.8371 2.0618 -0.5874 2.4188 -0.3644
3.3944 -2.0794 -1.4924 0.7912 4.0914 -1.7394 -2.0384 -3.4708 0.7796 -2.2038 -2.5874 3.1857 -0.0368 -3.5782 2.3934 -1.8197 2.5726 -1.2564 -0.8658 3.4557 0.8996 2.9034 -0.9108 -2.3113 1.0500 1.6325 -1.9479 1.4675 -0.7526 -2.1386 -1.6241 0.2516 1.6734 0.1730 -1.2280 0.5162 0.7841 2.7785 -0.9948 1.2561 0.3325 -1.1924 -0.7705 -1.2532 1.4702 0.2350 0.0699 -0.1338 -0.6680 0.9249 0.3784 -1.2244 -2.7861 2.1306 -0.8031 2.5372 -0.2202
4.0754 -1.4478 -2.3942 -0.8961 2.3831 -2.5418 -0.9171 -4.0250 1.0497 -2.9462 -2.8058 1.9829 -0.7950 -2.7767 3.2651 -1.6979 3.3153 0.1071 0.6740 3.2657 0.9401 2.5843 -1.2750 -2.2442 1.3729 1.7428 -1.7035 2.3591 -0.3524 -1.1460 -1.5526 0.3574 1.7469 -0.1895 -1.2430 0.2187 0.2046 2.6851 -1.5532 1.0722 0.2969 -1.3572 -1.0609 -1.2326 1.2368 0.1356 0.1048 -0.2128 -0.5434 1.0249 0.4905 -1.4952 -2.7169 1.9934 -0.3842 2.6992 0.1218
3.3673 -1.5928 -3.0867 0.1174 2.2972 -2.7165 -2.7581 -3.3351 1.3847 -1.6292 -2.4244 3.5031 -0.2790 -3.7684 1.8637 -2.0202 2.8528 -0.8389 -0.3892 3.3585 1.0066 3.1536 -0.7760 -1.8370 1.7797 1.9922 -0.8536 1.8138 -0.2173 -1.8815 -1.9969 0.0892 1.2048 0.2006 -1.1830 0.6407 0.5388 2.7140 -1.3289 1.5986 0.5021 -0.6356 -0.9885 -1.3315 1.2461 0.3265 0.1364 0.0473 -0.7477 0.9012 0.2964 -1.3110 -2.7818 2.1324 -0.7763 2.5668 -0.1474
2.1413 -1.7765 -2.9342 0.9305 3.8887 -1.9187 -2.7828 -3.3982 1.7025 -1.3925 -2.2938 3.5419 -0.2836 -3.8635 1.9247 -1.8542 2.3397 -1.5938 -0.8038 3.2372 0.5122 1.8896 -0.3833 -2.4133 1.8842 2.0544 -0.5544 2.5868 -0.2363 -1.1455 -2.0437 -0.2198 0.6949 0.3614 -1.1855 0.8717 0.7413 2.4652 -1.4555 1.8264 0.5803 -0.2150 -0.9201 -1.4714 1.1500 0.4802 0.0833 0.1805 -0.7065 0.6949 0.0504 -1.2479 -2.8090 2.1922 -0.8067 2.2939 -0.5906
3.5024 -0.7504 -3.4901 0.8812 3.8397 -1.8614 -3.0013 -3.0551 2.3358 -0.9860 -2.2904 3.7109 -0.6606 -3.9388 1.8444 -2.0193 2.5011 -1.2612 -0.5929 3.2304 0.6843 3.0009 -0.9714 -2.0850 1.7611 1.7527 -0.8613 1.6702 -0.3981 -1.9892 -2.0710 -0.0359 1.1072 0.1476 -1.3291 0.6930 0.5616 2.4058 -1.5116 1.5541 0.2590 -0.6965 -1.0562 -1.4413 1.2803 0.2730 -0.0663 -0.0097 -0.8088 0.7109 0.1633 -1.3122 -2.7530 2.3731 -0.8437 2.3301 -0.4263
2.9640 -2.2577 -2.9669 1.4439 3.1545 0.4792 -1.6031 -3.8014 1.1881 -2.1200 -2.3574 3.2476 0.2618 -2.9741 2.7474 -1.6464 2.4964 -1.8498 -1.5028 3.3825 0.5006 2.7748 -1.2226 -1.8861 1.3655 1.8811 -1.6784 1.5863 -0.4463 -2.1986 -2.0197 0.1272 1.1314 0.1613 -1.1176 0.4594 0.7020 2.9316 -0.8171 1.3585 0.4799 -1.0965 -0.9300 -1.2255 1.2335 0.1658 0.1352 -0.2708 -0.8968 0.8942 0.0403 -1.0609 -2.5921 2.2843 -1.0040 2.5121 -0.5476
2.3843 -2.6444 -2.4521 1.1129 4.2050 -1.3421 0.1572 -3.1966 2.8993 -1.3865 -3.8213 0.9493 -2.3409 -2.6515 2.9536 -1.6223 2.8609 -1.0388 -0.6334 3.4226 1.2095 2.5270 -1.1434 -2.4733 1.1758 1.7796 -1.8115 1.2079 -0.5486 -2.3528 -1.6849 0.2165 1.5823 0.0775 -1.2436 0.3526 0.9816 2.8264 -0.7399 1.2467 0.3790 -1.2298 -0.8878 -1.2993 1.2835 0.2097 0.0988 -0.1896 -0.6356 0.9564 0.4057 -1.2597 -2.8263 2.0005 -0.6296 2.6297 -0.0065
2.5991 -2.3640 -2.5026 0.6392 4.0571 -1.9206 -2.8210 -3.2016 1.8715 -0.9067 -2.5641 3.4428 -0.4249 -3.9235 1.3880 -2.1196 2.6379 -1.0866 -0.5880 3.3561 0.7814 2.9054 -1.1587 -1.6478 1.7211 2.0686 -0.9148 1.9079 -0.1370 -1.9219 -1.9825 -0.0280 1.0660 0.3042 -1.1701 0.6007 0.4435 2.6169 -1.5134 1.6396 0.5715 -0.6770 -0.8995 -1.3869 1.1543 0.3733 0.1457 -0.0103 -0.7544 0.8456 0.1893 -1.1506 -2.8470 2.0387 -0.8862 2.4814 -0.3376
4.3494 -0.9370 -2.3437 0.2225 3.7141 -2.3881 -2.8082 -3.2649 1.3561 -1.7567 -2.4841 3.5656 -0.3638 -3.7988 1.9396 -2.0822 2.9350 -0.3094 0.2300 3.2700 0.6341 2.8615 -1.1545 -2.1908 1.2701 1.5758 -1.7528 2.4147 -0.3940 -1.0334 -1.6691 0.2358 1.6764 -0.0850 -1.3640 0.3767 -0.0296 2.3430 -1.8069 1.0858 0.1335 -1.3209 -0.9810 -1.3314 1.3767 0.1187 -0.0439 -0.1937 -0.6882 0.8640 0.3799 -1.3832 -2.7972 2.1985 -0.7056 2.4986 -0.1639
3.3724 -2.3228 -1.1539 0.1274 3.9199 -2.3164 -1.7508 -3.7674 0.6016 -2.4140 -2.6817 2.8252 -0.0344 -3.3961 2.4707 -1.8849 3.2346 0.1094 0.5876 3.2097 0.6050 3.1623 -0.8279 -1.1708 0.7711 1.5271 -2.2201 1.9257 -0.5556 -1.8884 -1.7042 0.2222 1.5407 0.0637 -1.2305 0.2991 -0.2493 2.5579 -1.7837 1.2426 0.5185 -1.1934 -0.9066 -1.2945 1.2262 0.1985 0.1180 -0.2158 -0.6707 0.9587 0.3575 -1.2623 -2.8204 1.9516 -0.5741 2.6303 -0.0447
2.8365 -1.6803 -3.6384 0.9161 3.9876 -1.7193 -1.0327 -2.3015 3.7377 -0.3568 -3.8597 1.8152 -2.7577 -3.1488 2.0365 -1.9434 2.8936 -0.7323 -0.1590 3.2204 1.0186 2.5857 -1.2704 -2.2094 1.7726 1.7883 -0.9803 1.5052 -0.2991 -2.1919 -1.9576 0.0652 1.2610 0.1030 -1.3242 0.4923 0.5437 2.5572 -1.4129 1.4883 0.3032 -0.8666 -1.0213 -1.4030 1.2219 0.2513 -0.0062 -0.0974 -0.7465 0.8191 0.2595 -1.3423 -2.8403 2.1323 -0.6852 2.4989 -0.1265
1.9209 -1.3034 -3.7783 1.1517 3.8100 -1.8372 -0.8126 -2.5316 3.6841 -0.6933 -3.9887 1.5707 -2.8783 -2.9277 2.2126 -1.7553 2.5964 -1.1815 -0.3217 3.2804 0.7743 1.3588 -0.4465 -2.6725 2.0157 1.7850 -0.7057 2.2515 -0.5336 -1.5281 -1.9623 0.0072 1.0638 0.2632 -1.3106 0.7842 0.8262 2.4011 -1.4075 1.7933 0.3101 -0.4374 -0.9835 -1.4174 1.2726 0.4691 -0.0189 0.1570 -0.6175 0.7637 0.2519 -1.4313 -2.8616 2.1130 -0.5947 2.3860 -0.3358
1.9144 -1.2913 -3.7928 1.1781 3.8237 -1.7897 -0.8377 -2.4561 3.6997 -0.6672 -3.9887 1.6428 -2.8780 -2.9410 2.2171 -1.7430 2.5833 -1.2147 -0.3502 3.2625 0.7723 1.3769 -0.4100 -2.6943 2.0204 1.7767 -0.6835 2.2522 -0.5324 -1.5397 -1.9741 -0.0096 1.0332 0.2566 -1.3233 0.7736 0.8433 2.4069 -1.3935 1.7917 0.2985 -0.4400 -0.9932 -1.4316 1.2538 0.4627 -0.0338 0.1409 -0.6247 0.7480 0.2293 -1.4311 -2.8557 2.1341 -0.5972 2.3739 -0.3486
3.3289 -1.1832 -3.5334 0.8020 3.8592 -1.9357 -2.7863 -2.5900 3.0939 -0.2691 -2.9392 3.2378 -1.5432 -3.9126 1.3086 -2.0451 2.6602 -1.0069 -0.3933 3.2692 0.7965 2.9866 -0.9639 -2.0808 1.7380 1.7875 -0.9626 1.6483 -0.4032 -2.0079 -2.0105 0.0265 1.2190 0.1476 -1.3068 0.6480 0.4947 2.4404 -1.5234 1.5360 0.3008 -0.7387 -1.0139 -1.3952 1.3175 0.2776 -0.0177 -0.0065 -0.7785 0.7744 0.2378 -1.3188 -2.8189 2.2391 -0.8009 2.4125 -0.3023
2.6974 -0.4174 -3.5844 1.0330 3.6797 -2.0436 -3.0637 -2.8921 2.4705 -0.8097 -2.5921 3.6197 -0.9647 -3.9896 1.5427 -1.8181 2.2537 -1.5878 -0.6754 3.2422 0.4284 1.7178 -0.5843 -2.4503 1.9322 1.8466 -0.6474 2.4560 -0.5048 -1.1992 -2.0533 -0.1321 0.8827 0.2975 -1.2434 0.9705 0.7804 2.2861 -1.5234 1.8037 0.3882 -0.2575 -0.9814 -1.4253 1.3381 0.4552 -0.0073 0.2276 -0.6995 0.6705 0.1307 -1.3614 -2.8081 2.2917 -0.7460 2.2295 -0.6088
2.8375 -1.6945 -3.6061 0.8262 3.9433 -1.8326 -1.4979 -2.3558 3.7510 -0.2239 -3.7666 2.0392 -2.6658 -3.3055 1.6771 -1.9791 2.8409 -0.7278 -0.1550 3.2549 0.9646 2.7883 -1.0559 -2.2409 1.7573 1.8043 -1.0111 1.5302 -0.3377 -2.1224 -1.9379 0.0655 1.2907 0.1529 -1.3037 0.5698 0.4999 2.5189 -1.4577 1.5219 0.3176 -0.8235 -0.9741 -1.3843 1.2965 0.2929 0.0064 -0.0377 -0.7202 0.8218 0.2985 -1.3548 -2.8587 2.1141 -0.6985 2.4890 -0.1414
1.7897 -1.9672 -3.6585 1.6531 3.2311 0.5272 0.2146 -3.2681 2.8311 -1.6993 -3.6401 1.1791 -2.1183 -2.3484 3.2915 -1.3427 2.4026 -1.8674 -1.2956 3.3938 0.4448 1.1739 -0.9265 -2.7563 1.6787 1.7854 -1.5123 2.1384 -0.6021 -1.7167 -1.9128 0.1605 1.1277 0.2949 -1.1373 0.6713 0.9595 2.8861 -0.7687 1.6275 0.4315 -0.8337 -0.8648 -1.2120 1.3458 0.3923 0.1150 -0.0612 -0.6849 0.8912 0.1292 -1.2509 -2.6739 2.1695 -0.7531 2.4784 -0.5426
2.9790 -2.1839 -2.4273 -0.0673 2.3132 -2.6957 -2.8965 -3.1335 1.6883 -1.0180 -2.6282 3.3512 -0.4986 -3.8853 1.2398 -2.0594 2.9557 -0.6525 -0.2727 3.3934 1.0620 3.1071 -0.8702 -1.6974 1.7391 2.1173 -0.9554 1.8826 -0.1145 -1.8999 -1.9485 0.0869 1.1818 0.2535 -1.1318 0.5339 0.4473 2.7937 -1.3602 1.6225 0.6300 -0.6770 -0.9361 -1.3283 1.1250 0.3689 0.2205 0.0172 -0.7125 0.9584 0.3136 -1.2235 -2.8302 1.9275 -0.7667 2.6369 -0.0747
2.7424 -2.1456 -2.6460 0.1997 2.5503 -2.6537 -2.8694 -2.9021 2.3754 -0.4538 -2.8249 3.1859 -0.9897 -3.9248 0.9963 -2.0064 2.8825 -0.8294 -0.4660 3.3582 1.0981 3.0046 -0.8911 -1.8505 1.8068 2.0953 -0.7719 1.8351 -0.0365 -1.9566 -1.9616 0.0545 1.1493 0.2489 -1.1635 0.5312 0.5721 2.8432 -1.2216 1.6285 0.5933 -0.6618 -0.9364 -1.3508 1.1339 0.3610 0.1831 -0.0006 -0.7237 0.9221 0.2778 -1.2107 -2.8467 1.9458 -0.7815 2.6034 -0.1018
3.4388 -1.9948 -2.3857 0.9938 4.0066 -1.6907 -0.3326 -2.7441 3.4307 -0.8636 -3.9657 1.2380 -2.7243 -2.8390 2.4990 -1.6620 3.0541 -0.5111 0.0814 3.2714 1.2958 2.2175 -1.1725 -2.7108 0.5384 1.6226 -2.1919 2.0169 -0.2141 -1.6386 -1.3768 0.2326 1.8598 -0.3438 -1.3615 0.0829 0.8528 2.6244 -1.1023 0.6212 0.1974 -1.6775 -1.0005 -1.3563 1.2542 -0.0867 -0.0088 -0.3802 -0.5854 0.9099 0.4628 -1.3462 -2.8570 2.0433 -0.4390 2.5946 0.1224
3.9479 -1.9333 -1.5658 -0.2875 3.6841 -2.5063 -2.8848 -3.1993 1.3011 -1.5447 -2.6297 3.4104 -0.4265 -3.8725 1.5362 -1.8658 3.1799 0.1539 0.6303 3.2077 0.5059 3.3645 -0.5471 -1.4711 0.9422 1.5795 -2.0896 1.9624 -0.6096 -1.8490 -1.6841 0.2031 1.5975 0.0726 -1.2765 0.3704 -0.3207 2.3589 -1.7865 1.2850 0.4505 -1.1344 -0.9324 -1.3317 1.2602 0.2546 0.0734 -0.1290 -0.6062 0.9277 0.4462 -1.3473 -2.8447 1.9858 -0.5594 2.5796 -0.0358
2.7563 -1.9046 -3.2598 -0.0005 2.4598 -2.5965 -1.9286 -2.5439 3.4448 -0.1320 -3.6751 2.0238 -2.4360 -3.3637 1.0720 -1.9146 3.0256 -0.4909 -0.0873 3.3578 1.2041 2.7697 -1.1041 -1.9817 1.8238 2.0085 -0.9230 1.6788 -0.1474 -2.0383 -1.8459 0.1459 1.3628 0.2315 -1.1819 0.5400 0.5741 2.7989 -1.2425 1.6043 0.5174 -0.7464 -0.8900 -1.3059 1.2673 0.3812 0.1690 0.0287 -0.6325 0.9610 0.4108 -1.3282 -2.8652 1.8679 -0.6242 2.6478 0.0571
2.2013 -2.6838 -2.4007 1.8796 3.1493 -0.0756 0.1141 -2.8419 3.1380 -0.8590 -3.8233 0.9750 -2.3986 -2.7397 2.6403 -1.8803 2.8055 -1.1131 -0.7976 3.5183 1.0412 2.4905 -1.2063 -2.2897 0.9605 1.8540 -2.0102 1.2347 -0.4870 -2.4311 -1.6458 0.2609 1.5703 0.1001 -1.1478 0.2604 0.7119 2.9634 -1.0140 1.1616 0.4987 -1.3634 -0.8317 -1.2351 1.2227 0.1758 0.1937 -0.2838 -0.6849 1.0218 0.3288 -1.1234 -2.7769 1.9468 -0.8090 2.6762 -0.1418
2.0165 -2.7182 -2.0599 1.8812 3.1243 -0.0497 0.1907 -2.8638 3.0652 -0.8610 -3.8180 0.9267 -2.3350 -2.7432 2.6514 -1.8825 2.8514 -1.1120 -0.7887 3.5029 1.0556 2.4366 -1.2767 -2.2474 0.9632 1.8840 -2.0247 1.2483 -0.4657 -2.4696 -1.6266 0.2566 1.5475 0.1038 -1.1404 0.2140 0.7218 2.9786 -1.0109 1.1621 0.5192 -1.3996 -0.8120 -1.2357 1.1884 0.1669 0.2035 -0.3308 -0.6939 1.0264 0.2873 -1.0837 -2.7780 1.9163 -0.8075 2.6929 -0.1476
3.0148 -1.3742 -3.8099 1.8169 3.1120 -0.0770 -1.2968 -2.4012 3.8585 -0.1939 -3.7170 1.9663 -2.6122 -3.0833 1.7709 -1.8446 2.5373 -1.3420 -0.9510 3.4594 0.8202 2.7397 -1.0829 -2.3530 1.0778 1.6269 -1.9486 1.3353 -0.7371 -2.2101 -1.7234 0.2475 1.5813 0.1334 -1.2220 0.5106 0.7215 2.7987 -1.0669 1.2351 0.3127 -1.2039 -0.8308 -1.2425 1.4457 0.1990 0.0676 -0.1589 -0.7157 0.9215 0.3264 -1.2583 -2.7503 2.1776 -0.8468 2.5271 -0.2871
2.9640 -2.3622 -2.6425 1.4508 3.1507 0.3955 -2.6347 -2.9977 2.4153 -0.4459 -2.1962 3.4693 -0.3775 -3.8136 1.5490 -1.7847 2.5416 -1.7429 -1.4759 3.3147 0.6311 2.9229 -1.0224 -1.9506 1.2554 1.9127 -1.7694 1.6423 -0.3997 -2.2384 -2.0181 0.0293 1.0637 0.1885 -1.1478 0.3587 0.6337 2.9474 -0.8599 1.3499 0.5282 -1.1547 -0.9227 -1.3235 1.0922 0.1717 0.1304 -0.3298 -0.9028 0.8595 0.0131 -0.9686 -2.6524 2.1926 -1.0483 2.5010 -0.4922
2.9056 -2.4810 -2.0193 0.3030 4.0665 -2.0336 -1.6126 -2.6471 3.5060 -0.1523 -3.7837 1.7561 -2.5626 -3.3159 1.2288 -1.9573 3.0934 0.0102 0.3908 3.2784 0.9106 2.6003 -1.0741 -2.4687 1.3205 1.8503 -1.6709 2.4041 -0.2451 -1.2919 -1.5422 0.1750 1.6766 -0.0317 -1.2956 0.1579 0.0353 2.6420 -1.6049 1.0915 0.3745 -1.4118 -0.8839 -1.3609 1.1942 0.1763 0.0792 -0.2696 -0.5906 0.9326 0.4279 -1.3074 -2.9069 1.8372 -0.5867 2.6184 0.0652
3.3335 -1.4599 -3.5172 1.6192 3.0932 0.1687 -2.5015 -2.4611 3.2748 0.0261 -2.7480 3.1711 -1.4122 -3.8156 1.4145 -1.8109 2.4886 -1.6303 -1.2597 3.3687 0.6596 2.9219 -1.0122 -2.1369 1.1912 1.6960 -1.8625 1.5144 -0.6540 -2.1730 -1.9606 0.1260 1.2775 0.1144 -1.2134 0.4714 0.6865 2.8200 -0.9877 1.2911 0.3590 -1.1516 -0.9490 -1.2872 1.2885 0.1489 0.0544 -0.2389 -0.8610 0.8558 0.1377 -1.1225 -2.6853 2.2815 -0.9698 2.4748 -0.4474
3.3841 -1.3764 -3.0287 -0.6151 2.7568 -2.6781 -2.6151 -2.5895 3.0270 -0.2639 -3.4372 2.5413 -2.0181 -3.5802 0.7534 -1.8193 3.1760 -0.1498 0.4109 3.2496 1.0037 2.2175 -1.1979 -2.0899 1.3297 1.5434 -1.7821 2.6511 -0.3701 -0.9746 -1.8706 0.1651 1.3024 0.2280 -1.1958 0.5845 0.3473 2.6631 -1.5197 1.6373 0.6092 -0.6316 -0.9329 -1.3015 1.2530 0.4226 0.1534 0.0918 -0.6070 0.9518 0.4052 -1.3989 -2.8516 1.8474 -0.4876 2.6317 0.0449
3.2816 -2.3409 -1.2138 0.0408 3.9827 -2.2537 -2.7942 -2.9014 2.3985 -0.3142 -2.9341 3.0090 -1.0694 -3.9511 0.8438 -1.8731 3.2284 0.1846 0.5990 3.1576 0.6657 3.1481 -0.8391 -1.1518 0.8557 1.6522 -2.1728 1.9819 -0.4642 -1.9357 -1.7434 0.1304 1.4476 0.0485 -1.2588 0.1693 -0.2507 2.5928 -1.7442 1.2674 0.5631 -1.2028 -0.9512 -1.3741 1.0591 0.1983 0.1122 -0.2727 -0.6795 0.9270 0.3292 -1.1734 -2.8968 1.8386 -0.5724 2.6143 0.0022
2.1592 -1.8140 -3.5166 1.3186 3.3834 0.5309 -2.3835 -2.4484 3.2705 0.0215 -3.1897 2.8691 -1.6986 -3.5750 1.0841 -1.2750 2.0919 -2.1156 -1.6024 3.2657 0.0882 1.4110 -0.9210 -2.5596 1.7211 1.8572 -1.4188 2.3231 -0.5063 -1.5038 -1.9288 0.0590 1.0357 0.4153 -1.0494 0.8309 0.8233 2.9153 -0.8188 1.7143 0.5284 -0.6820 -0.7786 -1.1945 1.4252 0.4581 0.1563 0.0259 -0.6995 0.8327 0.0754 -1.1396 -2.7313 2.1253 -0.8595 2.3400 -0.7461
1.0662 -1.9806 -3.2162 1.4628 3.1018 0.8119 -0.7268 -2.1041 3.6825 -0.2872 -3.7964 1.8016 -2.6234 -2.9422 2.1661 -1.1000 2.3170 -2.0645 -1.4510 3.2591 0.2412 1.4320 -0.5446 -2.9239 1.8414 1.8623 -1.3175 2.2659 -0.5091 -1.7307 -1.9564 -0.0082 0.8395 0.3551 -1.1858 0.6088 0.9841 2.8800 -0.6064 1.7412 0.4497 -0.7679 -0.8700 -1.3396 1.1364 0.4539 0.0686 -0.1175 -0.6715 0.7947 -0.0177 -1.1910 -2.7111 2.1392 -0.7255 2.3885 -0.6648

>  <OB_ATOM_TYPES> (1cilA1)
C.3 C.3 N.3 O.2 O.2 O.2 O.2 C.3 C.3 N.3 S.2 C.ar C.3 C.3 C.ar C.ar C.ar S.O2 S.O2

>  <ENSEMBLE_RMSD> (1cilA1)
0.000 0.663 0.665 0.723 0.723 0.752 0.763 0.766 0.831 0.846 0.851 0.861 0.893 0.916 0.922 0.946 0.951 0.973 0.979 0.982 1.013 1.017 1.038 1.056 1.091 1.118 1.127 1.137 1.139 1.148 1.153 1.156 1.158 1.164 1.176 1.225 1.272 1.278 1.287 1.287 1.325 1.330 1.349 1.376 1.377 1.394 1.480 1.495 1.515

$$$$
