
 OpenBabel03071213D

 18 19  0  0  0  0  0  0  0  0999 V2000
   -1.1720    3.2170   11.8390 C   0  0  0  0  0
   -3.5370    7.4160   12.4500 C   0  0  0  0  0
   -5.3260   -0.6530   16.1270 N   0  0  0  0  0
   -7.2960    0.8830   16.6510 O   0  0  0  0  0
   -5.2860    1.0350   18.0140 O   0  0  0  0  0
   -6.2160    6.2230   13.4320 O   0  0  0  0  0
   -4.5920    6.6940   15.2230 O   0  0  0  0  0
   -2.4560    5.3470   13.4550 C   0  0  0  0  0
   -2.5240    3.0910   12.4030 N   0  0  0  0  0
   -6.1220    3.6020   15.5180 S   0  0  0  0  0
   -4.0240    2.1630   15.0510 C   0  0  0  0  0
   -3.7100    5.9440   12.8360 C   0  0  0  0  0
   -2.5480    3.8070   13.7010 C   0  0  0  0  0
   -5.2970    2.1280   15.6510 C   0  0  0  0  0
   -3.7950    3.4340   14.4350 C   0  0  0  0  0
   -4.9220    4.2820   14.5570 C   0  0  0  0  0
   -5.8630    0.9030   16.7140 S   0  0  0  0  0
   -4.9690    5.9070   14.0730 S   0  0  0  0  0
  1  9  1  0  0  0
  2 12  1  0  0  0
  3 17  1  0  0  0
  4 17  2  0  0  0
  5 17  2  0  0  0
  6 18  2  0  0  0
  7 18  2  0  0  0
  8 12  1  0  0  0
  8 13  1  0  0  0
  9 13  1  0  0  0
 10 14  1  0  0  0
 10 16  1  0  0  0
 11 14  2  0  0  0
 11 15  1  0  0  0
 12 18  1  0  0  0
 13 15  1  0  0  0
 14 17  1  0  0  0
 15 16  2  0  0  0
 16 18  1  0  0  0
M  END
>  <MOLID> (1cinA1)
1cinA1

>  <SMILES_CANONICAL> (1cinA1)
CN[C@H]1C[C@H](C)S(=O)(=O)c2c1cc(s2)S(=O)(=O)N	

>  <FINGERPRINT> (1cinA1)
0001000000000001000000000001000000000101010000000001001000000000000000010001000001101011000000101000000110111000000001100100000000000000000100000000000100000011000000000010000100000000001000000001100001000010000000000000000000100100000000000001000000000000000001011000100000001000010000000000000000001010110000001100000000000000011100000010001000000001111001000001101011000000111000000001101100100001000000100001111000000100001001100001001100000001100000100000000000010000000000000001000000000000010000010000000000001100000000000000000010000001000000100000001000100000000000000000000000000001000000000011000000000000000000001110001000000001001000000000000000000000000000000101100010000100100100001000001100000000100000000000001101100000000110100000010000000010000110010000110000000010111100000000000000110100000000000010000000000000000000000000000000001000000000001001010000000001000000000000110100000000011000000000000100000000001000000000011100000000001100100001000000000000100000000000000000000001110000010100101001100001

>  <MACCS166> (1cinA1)
000000000000000000001000010000011001000000000000011000100111100100100000100100001011000100001101011001011101001100111001000100100110100110011111010111100001011110111000

>  <OB_MW> (1cinA1)
310.012

>  <OB_logP> (1cinA1)
3.4747

>  <OB_PSA> (1cinA1)
151.33

>  <OB_MR> (1cinA1)
68.4821

>  <OB_ATOMIC_CHARGES> (1cinA1)
0.1077953665 0.025806702 0.0397093756 -0.1498054235 -0.1498054235 -0.168209585 -0.168209585 0.0458919176 -0.2134225068 -0.0491719675 0.0255703409 0.1361486278 0.0984523307 0.1553939728 0.0187213858 0.1335208379 0.0992012774 0.0124123562

>  <MCT_HBD> (1cinA1)
2

>  <MCT_HBA> (1cinA1)
6

>  <ENSEMBLE_TOTAL> (1cinA1)
5

>  <ENSEMBLE_COORDS> (1cinA1)
3.2533 -0.4176 -2.7238 0.8883 3.7814 -2.1128 -0.9007 -4.2876 1.5642 -2.8707 -2.7516 2.0882 -0.8607 -2.5996 3.4512 -1.7907 2.5884 -1.1308 -0.1667 3.0594 0.6602 1.9693 1.7124 -1.1078 1.9013 -0.5436 -2.1598 -1.6967 -0.0326 0.9552 0.4013 -1.4716 0.4882 0.7153 2.3094 -1.7268 1.8773 0.1724 -0.8618 -0.8717 -1.5066 1.0882 0.6303 -0.2006 -0.1278 -0.4967 0.6474 -0.0058 -1.4377 -2.7316 2.1512 -0.5437 2.2724 -0.4898
3.1518 -1.2000 -2.0326 1.0918 3.8175 -2.0561 -1.0414 -4.1383 1.0505 -2.6361 -2.7668 2.5022 -0.2071 -2.8847 3.1252 -1.8193 2.5753 -1.3621 -0.3153 3.2377 0.5495 1.9552 1.7285 -1.0573 1.9038 -0.4606 -2.1129 -1.8953 -0.0001 0.9538 0.2845 -1.3422 0.4979 0.7527 2.3932 -1.6881 1.7340 0.2427 -0.8505 -0.9102 -1.4260 1.1070 0.4412 -0.0663 -0.1762 -0.6251 0.7291 0.0063 -1.2382 -2.7973 2.1061 -0.6270 2.3583 -0.5628
1.4647 -0.5780 -2.8723 1.2701 3.7214 -2.0895 -0.3434 -4.1431 1.5730 -2.6931 -3.1799 1.7003 -1.0041 -2.5323 3.4341 -1.6436 2.5541 -1.3961 -0.1799 3.2269 0.5416 2.1223 1.6970 -0.9490 2.3481 -0.6415 -1.7196 -1.8617 -0.0157 0.8770 0.3536 -1.3537 0.6156 0.9331 2.3188 -1.6468 1.8863 0.2296 -0.6529 -0.8910 -1.4428 1.1118 0.5614 -0.0810 -0.0502 -0.5180 0.7122 0.0368 -1.3272 -2.8225 2.0469 -0.4776 2.3306 -0.5609
1.0018 -1.0788 -2.9708 1.4605 3.9781 -1.5021 0.0880 -3.6633 2.5516 -1.7733 -3.5670 0.7896 -2.1670 -2.5791 3.0619 -1.1510 2.3052 -1.7641 -0.8865 3.3275 0.5171 1.8049 1.5381 -1.6939 2.0563 -0.8939 -1.9873 -1.5390 0.1896 1.3834 0.4026 -1.3307 0.5648 1.2705 2.6485 -0.8097 1.7038 0.1643 -1.0497 -0.6592 -1.3148 1.3850 0.5490 -0.0646 -0.1346 -0.4183 0.7994 0.2081 -1.2800 -2.8282 1.9411 -0.4630 2.3697 -0.4904
1.6380 -0.5623 -2.7991 1.1622 3.7525 -2.0803 -2.3250 -2.4228 3.1482 -0.0333 -3.4266 2.6398 -1.9236 -3.8150 1.0328 -1.6971 2.4543 -1.4670 -0.3227 3.1775 0.5162 2.0942 1.7869 -0.8957 2.5007 -0.5280 -1.6292 -1.8652 -0.1445 0.7642 0.4367 -1.3501 0.6173 0.8965 2.3356 -1.6393 1.9342 0.3119 -0.5876 -0.8080 -1.4876 1.1007 0.6001 -0.0745 -0.0493 -0.5269 0.6543 -0.0176 -1.2134 -2.9377 1.9464 -0.5473 2.2762 -0.6004

>  <OB_ATOM_TYPES> (1cinA1)
C.3 C.3 N.3 O.2 O.2 O.2 O.2 C.3 N.3 S.2 C.ar C.3 C.3 C.ar C.ar C.ar S.O2 S.O2

>  <ENSEMBLE_RMSD> (1cinA1)
0.000 0.386 0.525 1.003 1.276

$$$$
