
 OpenBabel03071213D

 21 24  0  0  0  0  0  0  0  0999 V2000
   -3.7310   22.8820   22.6760 C   0  0  0  0  0
   -6.1840   19.9590   25.5110 C   0  0  0  0  0
   -8.1360   15.4170   26.0300 O   0  0  0  0  0
   -3.7950   22.9390   19.4630 O   0  0  0  0  0
   -8.2360   17.6320   24.9930 C   0  0  0  0  0
   -2.0600   20.5620   21.5850 C   0  0  0  0  0
   -6.2350   20.9280   22.7710 C   0  0  0  0  0
   -2.0820   21.4230   20.3020 C   0  0  0  0  0
   -7.6210   18.5350   23.9540 C   0  0  0  0  0
   -5.6600   21.6410   21.5520 C   0  0  0  0  0
   -3.2730   18.4950   23.4750 C   0  0  0  0  0
   -6.0100   16.5570   25.5230 C   0  0  0  0  0
   -4.0450   17.5600   24.3990 C   0  0  0  0  0
   -7.4700   16.3280   25.1090 C   0  0  0  0  0
   -4.0140   19.7990   23.1650 C   0  0  0  0  0
   -3.5280   20.3980   21.8780 C   0  0  0  0  0
   -5.5300   19.6040   23.0640 C   0  0  0  0  0
   -3.4190   22.1790   20.3540 C   0  0  0  0  0
   -5.3430   17.6730   24.7230 C   0  0  0  0  0
   -4.1420   21.7800   21.6330 C   0  0  0  0  0
   -6.1550   18.9380   24.3200 C   0  0  0  0  0
  1 20  1  0  0  0
  2 21  1  0  0  0
  3 14  1  0  0  0
  4 18  2  0  0  0
  5  9  1  0  0  0
  5 14  1  0  0  0
  6  8  1  0  0  0
  6 16  1  0  0  0
  7 10  1  0  0  0
  7 17  1  0  0  0
  8 18  1  0  0  0
  9 21  1  0  0  0
 10 20  1  0  0  0
 11 13  1  0  0  0
 11 15  1  0  0  0
 12 14  1  0  0  0
 12 19  1  0  0  0
 13 19  2  0  0  0
 15 16  1  0  0  0
 15 17  1  0  0  0
 16 20  1  0  0  0
 17 21  1  0  0  0
 18 20  1  0  0  0
 19 21  1  0  0  0
M  END
>  <MOLID> (1coyA1)
1coyA1

>  <SMILES_CANONICAL> (1coyA1)
O[C@H]1CC[C@]2(C(=CC[C@@H]3[C@@H]2CC[C@]2([C@H]3CCC2=O)C)C1)C	

>  <FINGERPRINT> (1coyA1)
0000000000000001000000000000000000000001000000000000000000100000000000000000000000001000000000000000000000000000000000000000000000000000000010000000000000000000000000000000000000000000000000000000000000000000000000000000000000000000000000000000010000000010000000000000000001000000000000000000000000010000000000000000100000000000000000000000001000000000010000000000000000010000000000000000010000000010100000000000100000000000100000000000000000000100000000000000000000000100000001000000000000001000000000000000100000000000000000000000000000000000000000000000000000000000001000000000001001000000001000000000000000000000000000000000000000000001000000000000000000000000000000000000000000000000000000100000000000000001000000001000000000000000000000000000000000000000000100000000000000100000000000000000000000000000000000000000000000000000000000000100000001000000000000001000000000000000000000000000000000000000000000000000000000000000000000010000000000000000000000000010010000000010000000000000000000000000000000000000000000000000

>  <MACCS166> (1coyA1)
000000000000000000000000010000000000000000000000010000000000000001000000000100000000000001000001001000011001000100110100000000111011000100111010111011010100101100111000

>  <OB_MW> (1coyA1)
288.209

>  <OB_logP> (1coyA1)
3.8792

>  <OB_PSA> (1coyA1)
37.3

>  <OB_MR> (1coyA1)
85.3588

>  <OB_ATOMIC_CHARGES> (1coyA1)
0.0073369749 0.0040347392 -0.2228001083 -0.2960841597 0.0335375343 0.0081668831 0.0007334403 0.0644898575 0.0063337672 0.0069279666 0.0253914628 0.0545280591 -0.0345461835 0.1560085475 0.0050242631 0.0072854706 0.0037743852 0.1498425204 -0.0465595178 0.051536738 0.0150373597

>  <MCT_HBD> (1coyA1)
1

>  <MCT_HBA> (1coyA1)
2

>  <ENSEMBLE_TOTAL> (1coyA1)
3

>  <ENSEMBLE_COORDS> (1coyA1)
1.3485 3.2997 -0.4897 -1.1045 0.3767 2.3453 -3.0565 -4.1653 2.8643 1.2845 3.3567 -3.7027 -3.1565 -1.9503 1.8273 3.0195 0.9797 -1.5807 -1.1555 1.3457 -0.3947 2.9975 1.8407 -2.8637 -2.5415 -1.0473 0.7883 -0.5805 2.0587 -1.6137 1.8065 -1.0873 0.3093 -0.9305 -3.0253 2.3573 1.0345 -2.0223 1.2333 -2.3905 -3.2543 1.9433 1.0655 0.2167 -0.0007 1.5515 0.8157 -1.2877 -0.4505 0.0217 -0.1017 1.6605 2.5967 -2.8117 -0.2635 -1.9093 1.5573 0.9375 2.1977 -1.5327 -1.0755 -0.6443 1.1543
1.3929 3.2487 -0.3697 -1.6865 0.2148 2.4427 -2.8326 -4.1552 2.4799 1.4508 3.6167 -3.2974 -2.7062 -2.4670 0.8148 2.1886 0.2944 -2.3878 -1.1005 1.4461 -0.3023 2.5463 1.4812 -3.2635 -2.1688 -1.1083 0.4016 -0.4452 2.0250 -1.5366 1.8084 -0.9618 0.5740 -0.9344 -2.7266 2.6030 1.0528 -1.8659 1.4791 -2.4082 -2.8226 2.2560 0.8991 -0.1345 -0.3191 1.7521 0.8822 -1.0552 -0.2266 0.4890 0.4892 1.6545 2.5587 -2.7152 -0.2269 -1.6712 1.8174 1.0467 2.1885 -1.3883 -1.0563 -0.5322 1.2773
1.5058 3.6336 -0.9607 -1.5537 0.1127 2.6793 -2.9276 -4.2134 2.0283 0.9171 2.8124 -3.7803 -2.9972 -2.0247 1.0930 2.8224 0.6786 -1.7477 -0.9160 1.7463 0.1523 2.2310 0.9205 -3.1235 -2.1722 -0.8940 0.5005 -0.4905 2.1607 -1.2382 1.8585 -0.8850 0.6501 -0.9804 -2.8725 2.3121 1.0696 -1.9065 1.3888 -2.1287 -3.2342 1.3864 0.9709 0.0470 -0.1611 1.8038 1.1772 -0.7346 -0.1379 0.5823 0.7228 1.3315 2.0948 -2.8780 -0.2110 -1.7305 1.7312 1.0063 2.2823 -1.4153 -1.0018 -0.4876 1.3947

>  <OB_ATOM_TYPES> (1coyA1)
C.3 C.3 O.3 O.2 C.3 C.3 C.3 C.3 C.3 C.3 C.3 C.3 C.2 C.3 C.3 C.3 C.3 C.2 C.2 C.3 C.3

>  <ENSEMBLE_RMSD> (1coyA1)
0.000 0.567 0.611

$$$$
