
 OpenBabel03071213D

 16 17  0  0  0  0  0  0  0  0999 V2000
   33.3570   51.9390   10.7650 O   0  0  0  0  0
   37.4510   52.6540   10.5530 O   0  0  0  0  0
   36.6940   51.9520    8.0850 O   0  0  0  0  0
   37.3770   48.3610    8.1860 O   0  0  0  0  0
   34.0690   51.5920   11.9880 C   0  0  0  0  0
   34.3520   46.2460    8.5840 C   0  0  0  0  0
   35.7260   46.7830    8.1070 N   0  0  0  0  0
   35.6150   50.1690   11.0250 O   0  0  0  0  0
   33.4730   47.4160    9.0320 C   0  0  0  0  0
   33.9940   48.6440    9.2560 C   0  0  0  0  0
   36.0520   52.5330   10.4680 C   0  0  0  0  0
   35.8290   51.7290    9.2300 C   0  0  0  0  0
   35.4790   51.5220   11.6050 C   0  0  0  0  0
   35.8860   50.3090    9.6320 C   0  0  0  0  0
   35.3030   48.9280    9.0090 N   0  0  0  0  0
   36.2150   48.0430    8.4400 C   0  0  0  0  0
  1  5  1  0  0  0
  2 11  1  0  0  0
  3 12  1  0  0  0
  4 16  2  0  0  0
  5 13  1  0  0  0
  6  7  1  0  0  0
  6  9  1  0  0  0
  7 16  1  0  0  0
  8 13  1  0  0  0
  8 14  1  0  0  0
  9 10  2  0  0  0
 10 15  1  0  0  0
 11 12  1  0  0  0
 11 13  1  0  0  0
 12 14  1  0  0  0
 14 15  1  0  0  0
 15 16  1  0  0  0
M  END
>  <MOLID> (1cttA1)
1cttA1

>  <SMILES_CANONICAL> (1cttA1)
OC[C@H]1O[C@H]([C@@H]([C@@H]1O)O)N1C=CCNC1=O	

>  <FINGERPRINT> (1cttA1)
0000000001000000000000000001000000000001010000001101000000000001000000001001000000000000000000001000000000000001000011100001000000000000001110000000000011000000000000000000000000000000000000000000010000000010000000100010010000000000000000000010010000000100000000000100000100000110000000000000000100000000000000001000000000000000001000000000000010000000010010000000000110000000001000000000000100000000100100010000001000010011000000010000000100000000000000000000100000000000000000000000000000011010110000000100100000100000000000000000000000000000000000000000001000000101000000000001000111000000000010000100010000000001000000000000000000100001000000000000000010001011001000000001000000010101000101000001010000000111000000000000000010000000000010000001000000000011001110000000010000000001000001000000001000000000000000000101000000000010000000000000000000001000000000000001000000000110000001110110000001000000000000000000001000000000000000000000010000000000000100010000110000001000000000000000000010000000000000000000101000000000

>  <MACCS166> (1cttA1)
000000000000000000000000000000000000100000001000000011001000010000000001001010010110100011110011111000000100110000001001110000100011100111110110010101111111111010111000

>  <OB_MW> (1cttA1)
230.09

>  <OB_logP> (1cttA1)
-1.769

>  <OB_PSA> (1cttA1)
102.26

>  <OB_MR> (1cttA1)
59.3621

>  <OB_ATOMIC_CHARGES> (1cttA1)
-0.2176085498 -0.2175409338 -0.2157500484 -0.2503502923 0.2141827127 0.1441790469 -0.183222112 -0.3322574993 0.0134835318 0.0684764594 0.2159231857 0.2313364766 0.1828554697 0.2331200507 -0.215893801 0.3290663031

>  <MCT_HBD> (1cttA1)
4

>  <MCT_HBA> (1cttA1)
7

>  <ENSEMBLE_TOTAL> (1cttA1)
2

>  <ENSEMBLE_COORDS> (1cttA1)
-2.0725 2.0128 1.1422 2.0215 2.7277 0.9302 1.2645 2.0257 -1.5378 1.9475 -1.5653 -1.4368 -1.3605 1.6657 2.3652 -1.0775 -3.6803 -1.0388 0.2965 -3.1433 -1.5158 0.1855 0.2427 1.4022 -1.9565 -2.5103 -0.5908 -1.4355 -1.2823 -0.3668 0.6225 2.6067 0.8452 0.3995 1.8028 -0.3928 0.0495 1.5957 1.9822 0.4565 0.3827 0.0092 -0.1265 -0.9983 -0.6138 0.7855 -1.8832 -1.1828
-2.4915 2.5750 1.3970 1.5587 3.3106 0.9221 2.4952 0.8528 -0.6386 -1.8679 -0.4920 -1.3878 -1.2740 2.5615 2.1306 -0.1987 -3.7255 -1.5766 -1.1451 -2.6337 -1.7114 -0.6261 0.5424 0.9854 0.9455 -3.3514 -0.7014 1.0803 -2.1314 -0.1721 0.9407 2.1278 0.7922 1.3675 1.0000 0.0723 -0.2878 1.8215 1.3254 0.3655 0.0597 0.1738 0.1475 -1.1621 -0.4241 -1.0096 -1.3553 -1.1869

>  <OB_ATOM_TYPES> (1cttA1)
O.3 O.3 O.3 O.2 C.3 C.3 N.am O.3 C.2 C.2 C.3 C.3 C.3 C.3 N.am C.2

>  <ENSEMBLE_RMSD> (1cttA1)
0.000 1.741

$$$$
