
 OpenBabel03071213D

 27 30  0  0  0  0  0  0  0  0999 V2000
  -25.1220  -30.7030   24.8440 N   0  0  0  0  0
  -25.7300  -32.8840   24.4660 N   0  0  0  0  0
  -19.6650  -34.3370   18.4800 O   0  0  0  0  0
  -16.3920  -35.2560   20.2020 C   0  0  0  0  0
  -17.3950  -34.0160   22.2270 C   0  0  0  0  0
  -16.8530  -34.0600   19.3190 C   0  0  0  0  0
  -17.7910  -32.8960   21.3250 C   0  0  0  0  0
  -15.7200  -35.9250   22.6000 C   0  0  0  0  0
  -20.9500  -31.9310   20.3630 N   0  0  0  0  0
  -14.3740  -34.3200   26.4640 C   0  0  0  0  0
  -15.6990  -34.8010   26.3600 C   0  0  0  0  0
  -13.4870  -34.3510   25.3550 C   0  0  0  0  0
  -16.1300  -35.3170   25.1240 C   0  0  0  0  0
  -13.9140  -34.8640   24.1260 C   0  0  0  0  0
  -22.6540  -30.5500   21.5620 C   0  0  0  0  0
  -23.6720  -30.6180   22.5390 C   0  0  0  0  0
  -21.3610  -33.8910   21.3030 C   0  0  0  0  0
  -23.2620  -33.0490   22.8460 C   0  0  0  0  0
  -16.1290  -34.7710   21.6280 C   0  0  0  0  0
  -18.0940  -33.5610   20.0610 N   0  0  0  0  0
  -24.9870  -31.8380   24.1860 C   0  0  0  0  0
  -15.2460  -35.3600   23.9730 C   0  0  0  0  0
  -19.4790  -33.7530   19.5580 C   0  0  0  0  0
  -21.9390  -31.7360   21.2190 C   0  0  0  0  0
  -20.5500  -33.2420   20.3660 C   0  0  0  0  0
  -23.9770  -31.8420   23.1850 C   0  0  0  0  0
  -22.2410  -32.9690   21.8570 C   0  0  0  0  0
  1 21  1  0  0  0
  2 21  2  0  0  0
  3 23  2  0  0  0
  4  6  1  0  0  0
  4 19  1  0  0  0
  5  7  1  0  0  0
  5 19  1  0  0  0
  6 20  1  0  0  0
  7 20  1  0  0  0
  8 19  1  0  0  0
  8 22  1  0  0  0
  9 24  1  0  0  0
  9 25  1  0  0  0
 10 11  1  0  0  0
 10 12  2  0  0  0
 11 13  2  0  0  0
 12 14  1  0  0  0
 13 22  1  0  0  0
 14 22  2  0  0  0
 15 16  1  0  0  0
 15 24  2  0  0  0
 16 26  2  0  0  0
 17 25  2  0  0  0
 17 27  1  0  0  0
 18 26  1  0  0  0
 18 27  2  0  0  0
 20 23  1  0  0  0
 21 26  1  0  0  0
 23 25  1  0  0  0
 24 27  1  0  0  0
M  END
>  <MOLID> (1d4pB1)
1d4pB1

>  <SMILES_CANONICAL> (1d4pB1)
O=C(c1cc2c([nH]1)ccc(c2)C(=N)N)N1CC[C@H](CC1)Cc1ccccc1	

>  <FINGERPRINT> (1d4pB1)
0000000000000000000000000000001000000001000000001001100000000000000000000001000000000001000000100001000000000001000011100000000000000000000001000000000000100001000000000001000000000000000000000000000000000000000000000000000000100010000000000011000000000001000000000001000000001001000000000000000000001000000010001100001100001000001110010000000000000100010100000000000110000000000000000000000000000000100010000000001000000000011100000000000000000000000000000000001000000100010000000000001000001100000000010000010000000000000000000000000000000000000000100000000000000000000001100000000000100000000000000000000000000000000000000000001000000001010000000000000000000001000000000001100000000111100001100000100000100000100000000010000000000000100000000101000000000000000111000000000000010000000000000000000011000000000000000000000000000000010000000000000000000000010000001001000000000000000000000000000000000000010000000000000100001100000000000000011000000000000000111110000000000100000000100000000000000000000000000100011000000000

>  <MACCS166> (1d4pB1)
000000000000000000000000010000000000010000101000010000000000000010000000001111100011110000110011011000001000011000001111110010001010000111010100111100101111011010111000

>  <OB_MW> (1d4pB1)
360.195

>  <OB_logP> (1d4pB1)
4.2848

>  <OB_PSA> (1d4pB1)
85.97

>  <OB_MR> (1d4pB1)
112.976

>  <OB_ATOMIC_CHARGES> (1d4pB1)
0.2047061732 0.2047061732 -0.2682526709 0.0219042327 0.0219042327 0.0937654115 0.0937654115 0.0264550526 -0.2407698442 -2.00236e-05 -0.0003225307 -0.0003225307 -0.0042665691 -0.0042665691 0.0193546107 0.0095369051 0.0252241964 0.009539416 0.0077552626 -0.2748487031 0.4766096562 -0.02218621 0.2667585048 0.0814753153 0.1346715498 0.0975747603 0.0195487872

>  <MCT_HBD> (1d4pB1)
3

>  <MCT_HBA> (1d4pB1)
5

>  <ENSEMBLE_TOTAL> (1d4pB1)
50

>  <ENSEMBLE_COORDS> (1d4pB1)
-5.8999 2.3101 2.6075 -6.3850 0.2508 1.5986 0.1311 0.5007 -3.9298 1.5869 -1.3754 -0.2392 3.1602 -0.7850 -2.1346 0.6505 -1.9464 -1.2821 2.1185 -1.3307 -3.0916 3.8134 -0.3873 0.1810 -1.2486 1.8083 -1.8087 4.9895 -1.7286 4.0652 3.6401 -1.2549 3.8185 5.8767 -1.7914 3.0562 3.2765 -0.8788 2.5798 5.4854 -1.3810 1.7190 -3.1710 2.9829 -0.6967 -4.3186 2.7446 0.1742 -1.7875 -0.3528 -1.1525 -3.7529 0.3704 0.2562 3.0312 -1.3269 -0.7171 0.7973 -1.2027 -2.5173 -5.6708 1.3421 1.6478 4.2264 -0.9713 1.4821 0.0472 -0.0771 -2.8450 -2.3891 1.9432 -1.0256 -0.9119 0.4329 -1.8293 -4.5733 1.5090 0.6532 -2.7223 0.5953 -0.5695
-6.2799 0.8789 2.2051 -6.2890 3.1650 1.7102 -0.7180 -1.8297 -3.2404 2.9463 0.2579 -1.1140 2.8914 -2.0880 -1.9924 1.5631 0.5464 -1.6654 2.0325 -1.4348 -3.0605 4.4260 -1.4944 -0.1367 -1.1688 1.2859 -1.6322 4.4304 -1.2971 4.1397 4.0358 -2.5130 3.4515 4.7820 -0.2074 3.4343 4.0123 -2.5491 2.1070 4.7666 -0.2484 1.9829 -2.6149 2.8808 -0.3692 -3.8057 2.9402 0.4623 -2.3167 -0.6726 -1.1254 -4.1354 0.5362 0.1689 3.0838 -1.2109 -0.7686 1.0484 -0.5507 -2.4719 -5.7512 1.9838 1.5654 4.3804 -1.3677 1.3439 -0.2906 -0.9024 -2.5518 -2.2450 1.6915 -0.8614 -1.2308 -0.1169 -1.7219 -4.5476 1.8372 0.6937 -3.0056 0.4793 -0.5527
-5.4316 1.3194 2.9647 -6.6038 2.8812 1.6755 -0.2055 -0.5664 -3.7783 2.0760 -0.6238 0.0871 3.2536 -1.3589 -2.0971 1.4876 0.5009 -0.7316 2.3999 -0.3338 -2.8209 4.5781 -1.0353 0.0144 -2.3639 0.7895 -2.6348 4.9929 -2.2123 4.1163 4.7043 -0.8380 3.7504 5.1579 -3.1442 3.1603 4.5846 -0.4989 2.4549 5.0271 -2.7781 1.7588 -4.6329 1.5017 -1.8544 -5.4034 1.7793 -0.6495 -1.4106 0.3971 -0.5572 -3.4720 1.1598 0.7135 3.2238 -1.3452 -0.5835 1.2216 0.0375 -2.0734 -5.6722 1.9715 1.7706 4.7264 -1.5105 1.4194 -0.0295 -0.0949 -2.6518 -3.3681 1.0768 -1.7227 -1.2126 0.4139 -1.9013 -4.8441 1.6457 0.5712 -2.7836 0.8661 -0.4003
-5.3960 1.4449 2.8969 -6.8376 2.6538 1.5068 0.1906 0.6200 -3.8019 1.8651 -0.6769 0.2259 3.3570 -0.2743 -1.7223 0.8113 -1.2328 -0.7156 2.2711 -0.8016 -2.6399 4.3038 -0.2710 0.5516 -2.4179 0.6711 -2.7066 5.5339 -2.8085 3.7695 4.4850 -1.8219 3.9528 6.1569 -2.9202 2.5827 4.1153 -1.0363 2.9260 5.7573 -2.0725 1.4728 -4.7096 1.3527 -1.9564 -5.4918 1.6416 -0.7609 -1.3803 0.6965 -0.6290 -3.4978 1.3170 0.6114 3.2568 -0.8987 -0.3434 0.9646 -0.6402 -2.0339 -5.7645 1.9251 1.6543 4.7538 -1.1900 1.6293 0.0320 0.1632 -2.6681 -3.4120 1.0462 -1.8143 -1.2410 0.4443 -1.9554 -4.9183 1.6232 0.4608 -2.7876 1.0453 -0.4927
-6.9998 2.4221 1.4768 -6.6460 0.1182 1.2414 1.2575 1.6576 -2.1084 0.9688 -2.5031 -0.4308 3.2044 -1.3536 -1.1080 0.3648 -1.8469 -1.6523 2.4554 -0.8435 -2.3147 2.6273 -1.9297 1.2660 -1.4678 2.0432 -1.8400 6.5811 -1.1611 2.7121 6.1364 -2.5191 2.4542 5.7516 -0.1261 2.4896 4.8997 -2.7447 1.9760 4.4138 -0.3697 1.9801 -3.6938 2.9886 -1.2265 -4.9021 2.6932 -0.4733 -1.5656 0.0991 -0.5796 -3.9058 0.5922 0.2882 2.4564 -2.3093 -0.1953 1.0651 -0.6349 -1.9995 -6.2637 1.3450 1.0158 4.0114 -1.6257 1.7120 0.5887 0.6544 -1.8447 -2.6979 2.0928 -1.2082 -0.8371 0.8365 -1.4588 -5.0030 1.5592 0.2495 -2.7997 0.8652 -0.4216
-6.1690 2.1849 2.5766 -6.8816 2.2176 0.3448 -0.7175 -1.5025 -3.5857 2.9383 0.2021 -1.0939 2.8012 -2.1194 -2.0447 1.6420 0.6107 -1.7794 2.0231 -1.4049 -3.1315 4.2734 -1.6874 -0.1227 -0.8337 0.5397 -0.6014 4.5188 -0.8476 4.0641 5.0990 0.0506 3.0824 3.8924 -1.9691 3.6656 4.9905 -0.2261 1.7712 3.7794 -2.2722 2.2493 -2.1677 1.7253 1.1356 -3.5287 2.0881 1.4888 -2.5667 -0.0135 -2.0421 -4.3568 0.9453 -0.5111 2.9755 -1.2859 -0.7876 1.0728 -0.4797 -2.5564 -5.9311 2.0422 1.2209 4.2856 -1.4214 1.3383 -0.2797 -0.7209 -2.7388 -1.9735 1.0235 0.0124 -1.2250 -0.0333 -1.8240 -4.5694 1.6916 0.7284 -3.0915 0.6622 -0.8592
-5.1328 2.0807 3.0281 -6.5449 3.1880 1.5286 -0.2862 -1.0207 -3.5782 2.1637 -0.4776 0.0127 3.3384 -1.2721 -2.1569 1.5391 0.5734 -0.8701 2.3380 -0.4331 -2.9311 4.6165 -1.1336 -0.0133 -2.4723 0.3588 -2.5434 4.8031 -2.2465 4.1243 5.2394 -3.1667 3.0890 4.3716 -1.0169 3.7930 5.1788 -2.8054 1.7936 4.3288 -0.6194 2.3983 -4.7234 1.1255 -1.7587 -5.4221 1.6508 -0.5911 -1.3368 0.5640 -0.5330 -3.3551 1.4915 0.7000 3.2482 -1.3010 -0.6466 1.2041 0.0107 -2.1559 -5.5272 2.3984 1.7416 4.6682 -1.4926 1.4319 -0.0719 -0.3310 -2.5768 -3.4253 0.8100 -1.6419 -1.2411 0.2470 -1.8510 -4.7697 1.8457 0.5746 -2.7293 0.9720 -0.3678
-6.9464 2.2283 0.3123 -6.1525 2.1400 2.5128 -0.6808 -1.4462 -3.5811 2.9647 0.3063 -1.1147 2.8570 -2.0083 -2.0867 1.6628 0.7050 -1.7976 2.0593 -1.2991 -3.1627 4.3184 -1.5740 -0.1549 -0.8116 0.5963 -0.5962 4.3905 -1.1061 4.0980 5.1267 -0.2070 3.2283 3.6770 -2.1181 3.5728 5.0746 -0.3691 1.8944 3.6285 -2.3006 2.1321 -2.1636 1.7330 1.1613 -3.5299 2.0692 1.5216 -2.5428 -0.0016 -2.0212 -4.3438 0.9217 -0.4806 3.0186 -1.1836 -0.8222 1.1014 -0.3893 -2.5751 -5.9357 2.0207 1.2305 4.2758 -1.4410 1.3241 -0.2486 -0.6558 -2.7394 -1.9590 1.0474 0.0298 -1.1988 0.0139 -1.8159 -4.5670 1.6562 0.7644 -3.0749 0.6617 -0.8343
-7.1834 2.6005 -0.2779 -6.6898 2.4664 2.0076 -0.7065 -1.5689 -3.2238 2.1833 -0.4817 -0.1110 3.1023 -1.7236 -2.1912 1.5297 0.4101 -1.1358 2.0115 -1.0551 -3.0063 4.5805 -1.2408 -0.2596 -1.0876 0.6362 -0.4030 5.2726 -1.6312 3.9527 5.5215 -2.7448 3.0545 4.8489 -0.4534 3.4615 5.2963 -2.6124 1.7339 4.6295 -0.3032 2.0354 -2.5851 1.8574 1.1683 -3.9658 2.2675 1.3542 -2.6529 0.1113 -2.0317 -4.5817 1.1436 -0.7313 3.1485 -1.4937 -0.6932 1.0058 -0.3933 -2.2162 -6.3144 2.3389 0.7632 4.8019 -1.3505 1.2082 -0.3299 -0.7152 -2.4179 -2.2774 1.1534 0.0719 -1.3449 0.0638 -1.6612 -4.9192 1.9014 0.4735 -3.2938 0.8172 -0.9246
-5.7589 2.4235 2.5391 -4.7519 0.3916 3.1210 0.7695 1.1482 -3.5945 2.3674 -2.4283 -1.0798 3.6624 -0.7162 -2.3922 1.0457 -1.8802 -1.5956 2.5089 -0.9730 -3.3465 3.1861 -0.2931 -0.0082 -1.7446 1.2517 -2.3936 3.3727 -1.6619 4.0410 4.5579 -1.1544 3.3730 2.1925 -1.6846 3.3966 4.4836 -0.7270 2.0997 2.1089 -1.2117 2.0273 -3.8375 2.0638 -1.3000 -4.5857 2.0005 -0.0534 -0.8124 0.1595 -0.5720 -2.7808 0.6926 0.9534 3.4655 -1.3750 -1.0363 1.2374 -0.8992 -2.6498 -4.8912 1.3777 2.2774 3.2158 -0.7845 1.3928 0.5121 0.2779 -2.7583 -2.6518 1.4428 -1.3648 -0.6846 0.4609 -1.8916 -4.0849 1.3548 1.0201 -2.1020 0.7436 -0.2045
-6.4937 1.6339 2.1647 -6.6969 0.3023 0.2518 1.6782 1.5161 -1.9775 1.0823 -2.6948 -0.6302 3.3649 -2.2017 -1.7705 0.5431 -1.9425 -1.8196 2.7123 -1.0025 -2.4312 3.2213 -3.0757 0.6079 -0.5828 1.9567 -0.4047 4.2810 0.7467 2.2207 2.9442 0.2105 2.4036 5.2116 0.0290 1.5671 2.6315 -1.0024 1.9137 4.8766 -1.2807 1.0399 -2.6232 2.8461 0.7338 -4.0138 2.5276 1.0230 -1.5064 0.0145 -1.2705 -3.7852 0.4342 -0.2181 2.5601 -2.9837 -0.7524 1.3497 -0.7605 -2.0221 -5.9733 1.0845 1.0055 3.6305 -1.7662 1.1847 0.9526 0.5404 -1.7678 -1.9073 1.9790 0.0044 -0.3807 0.7648 -1.1401 -4.5649 1.3737 0.5917 -2.5119 0.7506 -0.5079
-4.6035 2.4205 3.0985 -6.3946 2.8937 1.6648 -0.2243 -1.0607 -3.6700 2.9890 0.5366 -0.6522 3.1562 -1.4771 -2.1426 1.6698 0.9534 -1.2852 2.4021 -0.5580 -3.0843 4.4190 -1.4312 -0.0205 -2.4339 -0.0936 -2.3626 4.1303 -1.9068 4.2254 5.2937 -1.2972 3.6074 3.1274 -2.3723 3.4597 5.3543 -1.1660 2.2704 3.1996 -2.2450 2.0151 -4.6620 0.4304 -1.3581 -5.2835 1.0839 -0.2152 -1.0997 0.8244 -0.7053 -3.0704 1.6447 0.6596 3.1587 -0.9696 -0.7132 1.3032 0.0958 -2.4025 -5.2209 2.3589 1.8638 4.2546 -1.6350 1.4434 0.0186 -0.3103 -2.7197 -3.3240 0.4052 -1.4268 -1.1237 0.1836 -1.9021 -4.5290 1.6851 0.7282 -2.5069 1.0064 -0.3760
-6.8286 3.2723 -0.0210 -7.1406 1.5637 1.5505 0.3965 1.0665 -3.3532 1.7144 -1.4115 -0.0962 3.1805 -0.7884 -2.0735 0.6382 -1.7760 -1.0985 2.0178 -1.1582 -2.9731 3.9701 -0.4748 0.1987 -1.2087 0.1980 -0.3236 5.9029 -1.8736 3.7400 4.4889 -1.5456 3.7438 6.6073 -1.7974 2.5969 3.8798 -1.1784 2.6024 5.9530 -1.3848 1.3671 -3.0372 0.5299 1.3309 -4.3733 1.0778 1.4766 -2.2579 1.1009 -2.1867 -4.3660 1.7202 -0.8873 3.1219 -1.3841 -0.6737 0.7556 -0.9634 -2.2938 -6.3818 2.1653 0.6738 4.6342 -1.1187 1.3599 0.0742 0.2363 -2.5016 -2.4442 0.6165 0.1339 -1.1606 0.4568 -1.7043 -5.0081 1.6385 0.4269 -3.1283 1.2121 -1.0146
-6.9751 0.2477 -0.0541 -6.7558 1.5391 1.8868 1.4953 1.5718 -1.8951 1.3900 -3.0206 -1.3458 3.3530 -1.4567 -1.5490 0.4361 -1.8840 -1.6712 2.4633 -0.8947 -2.6410 2.4151 -2.0959 0.7179 -0.8315 1.9996 -0.4583 5.7537 -0.2765 2.6832 4.8066 0.5176 1.9227 5.5741 -1.6038 2.8080 3.7502 -0.0750 1.3399 4.4475 -2.2497 2.1556 -2.9141 2.8809 0.6057 -4.3054 2.5412 0.8680 -1.7021 0.0239 -1.3064 -3.9989 0.4153 -0.3002 2.6817 -2.5363 -0.7120 1.1148 -0.6909 -2.1481 -6.2360 1.0506 0.7936 3.5872 -1.5177 1.4253 0.7526 0.5945 -1.7679 -2.1631 2.0069 -0.0784 -0.5956 0.8001 -1.1702 -4.8126 1.3568 0.4670 -2.7310 0.7557 -0.5760
-7.3517 0.2643 -0.2050 -7.1094 1.7167 1.6182 0.8938 1.5006 -2.6066 1.3647 -2.7267 -0.4965 3.1875 -1.0677 -1.0471 0.4374 -1.5405 -0.6891 2.2541 -0.8662 -2.2225 2.9323 -2.0027 1.2716 -1.2560 2.1617 -0.8418 6.9253 -1.0129 2.4374 5.8886 0.0008 2.3724 6.6326 -2.2970 2.1643 4.6354 -0.3417 2.0259 5.2806 -2.6682 1.7854 -3.4030 3.1181 0.0209 -4.7849 2.7618 0.3170 -2.0361 0.0312 -1.3560 -4.3529 0.4781 -0.4400 2.7871 -2.2760 -0.2131 0.9002 -0.6497 -1.7456 -6.6174 1.1646 0.5431 4.3278 -1.7232 1.6941 0.3474 0.6065 -1.9586 -2.5925 2.1713 -0.4733 -0.9702 0.8710 -1.3366 -5.2234 1.4987 0.1350 -3.0974 0.8271 -0.7537
-6.7342 3.2818 0.6558 -7.2926 1.1289 1.3713 0.9682 2.2944 -2.1125 1.5306 -2.3491 -1.2109 3.2731 -0.4844 -0.8422 0.7128 -1.3312 -1.9901 2.6706 0.0984 -2.0916 2.9481 -2.3575 0.8093 -1.6171 -0.1081 -1.2775 6.4267 -1.2036 3.0277 5.1771 -0.4766 3.1581 6.4969 -2.2832 2.2286 4.0986 -0.8612 2.4528 5.3333 -2.6969 1.4622 -3.9490 -0.5752 -0.5313 -5.1360 0.0673 0.0030 -1.5624 2.1648 -0.8252 -3.9645 2.2126 0.0356 2.8830 -1.9365 -0.6497 1.2415 0.0135 -1.9389 -6.4399 1.9401 0.8016 4.1919 -1.9888 1.5379 0.5057 1.1844 -1.8383 -2.8700 0.1812 -0.7678 -0.8707 1.0843 -1.2792 -5.1487 1.3858 0.2870 -2.8731 1.6150 -0.4760
-5.6257 2.3822 2.5647 -7.0375 2.0209 0.7295 1.5822 1.9612 -1.3392 1.3954 -2.5758 -1.6906 3.5321 -1.2198 -1.5652 0.7195 -1.4160 -2.3965 2.8447 -0.2282 -2.4826 2.1845 -1.7389 0.5129 -1.4845 0.1007 -1.7532 5.4659 -1.0412 3.1720 4.9990 -2.3914 2.9120 4.8619 0.0063 2.5835 3.9640 -2.5984 2.0779 3.7424 -0.2153 1.6869 -3.9178 -0.1599 -1.2285 -4.9740 0.3690 -0.3745 -0.9790 1.7145 -0.1612 -3.3779 1.9300 0.6211 2.6102 -2.2036 -0.8667 1.4234 -0.1603 -2.2358 -5.8547 1.9419 1.2749 3.3224 -1.4671 1.4292 0.9175 0.9483 -1.5700 -2.6869 0.3591 -1.1151 -0.5002 0.8945 -1.1322 -4.7256 1.3884 0.4743 -2.4014 1.3989 -0.1276
-5.3017 -0.2180 2.5893 -5.7578 2.0772 2.6231 1.5738 1.4652 -2.5730 1.9803 -3.0650 -1.4228 3.7540 -1.2658 -1.8939 0.9312 -1.9987 -1.6975 2.7530 -0.9649 -2.9863 3.8343 -2.6108 0.2573 -1.0820 1.7948 -1.7677 2.1123 0.4542 2.6978 1.3993 -0.7827 2.4387 3.3496 0.6358 2.2030 1.9702 -1.7436 1.6921 3.9650 -0.3987 1.3904 -3.1960 2.6710 -0.7545 -4.1870 2.3809 0.2747 -0.7694 -0.0236 -0.3626 -2.8781 0.4397 0.9739 3.3858 -2.5500 -1.1860 1.4354 -0.8287 -2.3949 -5.0785 1.0713 2.1424 3.2890 -1.5306 1.1215 0.9870 0.4638 -2.1529 -2.1444 1.8483 -0.8789 -0.3108 0.6510 -1.4487 -4.0335 1.3268 1.1042 -1.9810 0.7009 0.0111
-6.9355 2.5473 1.4101 -4.9665 3.5380 2.2044 -0.2690 -0.9740 -3.5637 2.9726 0.5614 -0.5501 3.1735 -1.3268 -2.1848 1.5881 0.9165 -1.0649 2.3690 -0.3565 -3.0324 4.5551 -1.3356 -0.1319 -2.2257 -0.7250 -1.5760 4.4660 -2.1333 4.0727 4.9756 -0.8757 3.5575 4.0170 -3.0764 3.2254 4.9766 -0.6423 2.2329 4.0249 -2.8286 1.7938 -4.4259 -0.4367 -0.4347 -5.1920 0.5024 0.3693 -1.3544 1.3880 -1.1676 -3.3868 2.1407 0.1634 3.2271 -0.9233 -0.7224 1.2545 0.1944 -2.2838 -5.5565 2.6434 1.4597 4.4627 -1.6485 1.3179 -0.0218 -0.2352 -2.6079 -3.2116 -0.0663 -0.8624 -1.1351 0.1619 -1.7105 -4.7011 1.7260 0.6538 -2.6807 1.2642 -0.5675
-5.2073 3.5258 2.0704 -7.0654 2.8814 0.8009 -0.1548 -1.4450 -3.1387 2.3966 1.2011 -0.1814 3.0613 -1.1566 -0.9783 1.3788 1.2729 -1.3011 2.3806 -0.7295 -2.2537 4.2747 0.0119 0.8447 -2.4756 -0.7023 -1.8616 5.5908 -3.3666 3.1124 4.6132 -2.4415 3.6571 6.1038 -3.1623 1.8862 4.2060 -1.3860 2.9300 5.6686 -2.0208 1.1023 -4.7926 -0.1975 -1.0800 -5.5581 0.7539 -0.2879 -1.3982 1.1016 -0.8842 -3.5211 2.0384 0.1299 2.9289 -0.1753 0.1737 1.1770 -0.0056 -1.9397 -5.7935 2.7705 1.0724 4.7372 -1.1832 1.5935 -0.0405 -0.5264 -2.3238 -3.4729 -0.0040 -1.2043 -1.2593 -0.0183 -1.6399 -4.9588 1.8233 0.2765 -2.8193 1.1402 -0.5753
-5.9403 3.5079 1.0222 -6.7896 1.4181 1.6749 0.3308 1.0798 -3.6187 2.2851 -2.2694 -0.9430 3.4405 -0.5038 -2.3552 0.9373 -1.7921 -1.4501 2.2792 -0.8444 -3.2667 3.3037 -0.2121 0.1023 -1.0448 -0.2453 -0.5289 4.7162 -1.6952 3.8648 5.6450 -1.1881 2.8708 3.3960 -1.7110 3.6080 5.1867 -0.7335 1.6903 2.9007 -1.2127 2.3368 -2.8014 -0.1413 1.2416 -4.0303 0.5504 1.6020 -1.9439 1.3174 -1.9906 -3.9275 1.8089 -0.4960 3.3838 -1.2248 -1.0215 1.0427 -0.8137 -2.5173 -5.8207 2.1421 1.1869 3.7614 -0.7625 1.4056 0.1878 0.2626 -2.7059 -2.2057 0.1833 0.0859 -0.9404 0.4320 -1.7575 -4.5645 1.4677 0.7706 -2.7878 1.1797 -0.8112
-6.6406 1.6857 2.0178 -6.7963 0.5649 -0.0333 1.6240 1.3281 -1.9436 1.2848 -2.5400 -0.3735 3.2678 -1.7043 -1.7313 0.3972 -2.0299 -1.4847 2.2755 -1.2393 -2.7803 3.6078 -3.0774 0.3511 -0.5890 1.8475 -0.2282 4.3767 0.5967 2.3946 5.3940 -0.0233 1.5653 3.2173 -0.0425 2.6301 5.1647 -1.2221 1.0005 2.9670 -1.3332 2.0166 -2.6243 2.8218 0.8751 -4.0547 2.5916 1.0585 -1.6431 0.0888 -1.3245 -3.9057 0.5932 -0.3350 2.7054 -2.8026 -0.8416 1.0114 -0.9015 -2.1596 -6.0901 1.2461 0.8283 3.8839 -1.8805 1.1972 0.8224 0.4147 -1.7394 -1.9278 1.9509 0.1296 -0.4687 0.7186 -1.0723 -4.6573 1.5163 0.5079 -2.6024 0.8318 -0.5253
-6.3208 3.4085 1.0747 -7.0732 1.2683 1.6415 0.9707 2.0683 -2.3329 1.5520 -2.2263 -0.8489 3.5149 -0.8792 -1.8241 0.6892 -1.5426 -1.8868 2.5225 -0.1946 -2.7429 2.9767 -0.8094 0.6159 -1.6827 -0.2161 -1.4646 5.9896 -1.9793 3.4255 6.1870 -0.8430 2.5438 4.8507 -2.6916 3.3604 5.2387 -0.5116 1.6491 3.8194 -2.3251 2.4050 -3.9945 -0.5732 -0.5965 -5.0926 0.1110 0.0650 -1.4129 1.9907 -0.8020 -3.7527 2.1526 0.1832 2.9331 -1.6384 -0.6490 1.1814 -0.2236 -2.2147 -6.1754 2.0346 1.0817 4.0149 -1.2919 1.5651 0.5031 0.9699 -2.0239 -2.8751 0.1181 -0.8459 -0.8377 0.9063 -1.3863 -4.9833 1.4028 0.4390 -2.7430 1.5149 -0.4314
-6.5761 1.4133 2.1826 -7.9394 1.6516 0.2910 0.4602 1.1601 -3.0087 1.5699 -1.9889 0.4598 3.1389 -0.2177 -0.4712 0.4676 -1.2896 -0.3236 2.2863 -0.3519 -1.7038 3.5543 -1.2262 1.7498 -2.0958 1.6774 -2.3194 7.6233 -2.4570 2.2683 7.2854 -1.0584 2.0746 6.6524 -3.3872 2.3005 6.0028 -0.6946 1.8938 5.2665 -2.9935 2.1170 -4.4092 2.5470 -1.9977 -5.5646 2.4510 -1.1179 -1.9927 0.2695 -0.4817 -4.3765 0.7937 0.2371 2.9896 -1.4626 0.3660 0.8987 -0.3099 -1.3016 -6.7500 1.5648 0.8203 4.9560 -1.7049 1.8857 0.0665 0.5242 -2.0246 -3.3280 1.8097 -1.7106 -1.3303 0.7569 -1.5634 -5.5560 1.6015 -0.0699 -3.2996 0.9215 -0.5521
-6.6422 0.8306 -0.1339 -6.3414 1.2839 2.1439 1.9316 1.4686 -1.5515 1.2923 -2.9892 -1.1759 3.5424 -1.9843 -2.0424 0.6150 -1.9010 -1.9745 2.7082 -0.9287 -2.7353 3.3277 -2.9714 0.2848 -0.2819 1.6067 0.1879 3.2943 0.8974 2.1217 2.1135 0.0539 2.1500 4.4356 0.4404 1.5770 2.1480 -1.1732 1.6002 4.4738 -0.8829 0.9819 -2.2957 2.4135 1.4317 -3.7373 2.2330 1.5292 -1.3608 0.1835 -1.2964 -3.6455 0.5734 -0.2637 2.8021 -2.9445 -1.1364 1.4408 -0.7218 -2.0814 -5.8409 1.1495 0.9457 3.3649 -1.6445 0.9594 1.1474 0.5173 -1.5414 -1.6236 1.6942 0.5222 -0.1701 0.6833 -0.8759 -4.3734 1.3330 0.7507 -2.3248 0.7794 -0.3779
-7.6424 1.8893 0.8556 -6.3061 3.8146 0.7832 0.4899 1.2384 -3.0616 2.0434 -0.9357 0.1674 3.1975 -0.8867 -2.0607 0.7681 -1.3006 -0.5553 1.8656 -1.1869 -2.7237 4.4973 -0.6942 0.0016 -1.8923 -0.4104 -0.8927 6.0412 -2.2445 3.6771 4.9993 -1.2347 3.6723 6.5145 -2.7287 2.5152 4.4990 -0.7910 2.5056 5.9786 -2.2457 1.2544 -4.0311 -0.3935 0.3891 -5.1455 0.4649 0.7557 -1.8688 1.8206 -1.5451 -4.1373 2.3043 -0.5050 3.2771 -1.3532 -0.6139 0.7609 -0.7493 -1.8970 -6.4259 2.5208 0.6632 4.9874 -1.3366 1.2484 0.0971 0.4293 -2.2206 -3.0576 0.1215 -0.3730 -1.2114 0.6319 -1.5502 -5.2128 1.7333 0.3042 -3.0858 1.5225 -0.7942
-5.2328 2.0818 2.9967 -6.6553 1.6589 1.1850 1.9977 1.9266 -0.9728 1.4883 -2.5591 -1.9177 3.8695 -1.5527 -2.0590 1.0724 -1.2374 -2.5248 3.2486 -0.1821 -2.2547 3.1415 -2.9668 -0.0536 -1.0746 0.0945 -1.4611 2.8797 0.4380 2.5306 1.6831 -0.2631 2.1038 4.0909 -0.0392 2.1943 1.7807 -1.3606 1.3323 4.1984 -1.2156 1.3504 -3.5024 -0.1843 -0.9650 -4.5562 0.2841 -0.0806 -0.5624 1.6239 0.2058 -2.9592 1.7591 1.0429 2.9460 -2.6232 -1.5165 1.8405 -0.1585 -1.9411 -5.4543 1.6680 1.6976 3.0873 -1.8210 0.8937 1.3216 0.9407 -1.2758 -2.2697 0.3115 -0.7988 -0.0892 0.8626 -0.8164 -4.3076 1.2251 0.8534 -1.9824 1.2886 0.2514
-7.4209 1.7281 0.1022 -6.1859 3.1841 1.4680 1.4272 2.0419 -1.2482 1.2095 -2.5463 -1.3775 3.4611 -1.4223 -1.6246 0.6803 -1.3985 -2.2219 2.7930 -0.1690 -2.1561 2.4267 -1.8431 0.6674 -1.3493 -0.2249 -0.7700 6.0136 -1.1063 2.8877 5.4347 -2.4372 2.8394 5.4309 -0.0940 2.2215 4.3205 -2.6638 2.1191 4.2183 -0.3335 1.4616 -3.7173 -0.5688 -0.0498 -4.9253 0.1560 0.3184 -1.3624 2.0945 -0.8587 -3.7748 2.2759 -0.0992 2.5802 -2.3130 -0.7677 1.3682 -0.1574 -1.9258 -6.2301 2.1733 0.6446 3.7003 -1.5729 1.3851 0.7936 0.9977 -1.4213 -2.6315 0.1375 -0.3936 -0.6462 0.9582 -1.0638 -4.9509 1.5040 0.2894 -2.6638 1.5996 -0.4262
-6.0423 1.8450 2.4134 -5.9381 -0.2773 1.4257 2.0589 1.5065 -1.5650 1.2840 -2.9531 -1.3832 3.6694 -2.0353 -1.8994 0.7885 -1.8358 -2.2762 2.9975 -0.8785 -2.6102 3.0839 -2.9710 0.3862 -0.6026 2.0447 -1.0591 2.7502 0.8801 2.2363 3.9817 0.4680 1.5884 1.7136 0.0270 2.3162 4.0835 -0.7642 1.0597 1.8131 -1.2940 1.7195 -2.7128 2.9451 -0.0798 -3.9411 2.5349 0.5806 -0.9036 -0.1896 -0.5196 -3.1693 0.2131 0.5643 2.7687 -2.9469 -1.0956 1.6401 -0.6743 -2.1678 -5.4281 0.9111 1.5981 2.9398 -1.6627 1.0836 1.2888 0.5437 -1.6186 -1.8168 2.0014 -0.3976 -0.1047 0.7239 -1.1315 -4.1572 1.2408 0.8924 -2.0452 0.5975 -0.0608
-5.6351 3.3340 1.4935 -6.4644 1.1802 1.8814 1.4206 1.7104 -2.4379 2.1004 -2.8873 -1.6258 3.7891 -1.0095 -2.0733 1.0097 -1.8422 -1.7748 2.7155 -0.6426 -3.0747 4.0107 -2.4686 -0.0044 -0.6506 -0.2776 -0.2997 2.2649 0.3302 2.7276 1.6853 -0.9872 2.5391 3.3937 0.6688 2.0796 2.2649 -1.8641 1.7000 4.0179 -0.2763 1.1714 -2.6260 -0.4954 1.2027 -3.8557 0.1740 1.5910 -1.2307 1.7116 -1.3424 -3.3703 1.9804 0.0132 3.4974 -2.3430 -1.4231 1.4297 -0.6031 -2.4074 -5.4942 1.9599 1.4859 3.4542 -1.4794 0.9583 0.9098 0.6473 -2.0770 -1.8451 0.0941 0.2889 -0.3461 0.6805 -1.2828 -4.2152 1.3444 1.0250 -2.2303 1.3606 -0.3344
-6.4722 3.7816 0.6335 -7.5220 1.7245 1.0037 0.1559 1.0405 -3.5135 1.8284 -1.5893 0.0604 3.2462 -0.1143 -1.4843 0.7184 -1.5031 -0.9709 2.2572 -0.4986 -2.5553 3.7770 -0.3469 0.8915 -1.8052 -0.3822 -0.8560 6.5632 -2.6102 3.2157 7.0032 -1.4925 2.4000 5.2584 -2.9299 3.2760 6.1125 -0.8027 1.6649 4.2952 -2.1751 2.4955 -3.8843 -0.3645 0.5182 -5.0378 0.4534 0.8483 -2.0057 1.7282 -1.7994 -4.2509 2.1876 -0.6864 3.2081 -1.0721 -0.3120 0.9431 -0.4729 -1.9614 -6.4637 2.4001 0.6433 4.7099 -1.1823 1.6876 -0.0096 0.3924 -2.4777 -2.9914 0.1215 -0.3529 -1.2399 0.6108 -1.6748 -5.2334 1.6491 0.2550 -3.1606 1.4471 -0.9491
-7.1457 1.6437 0.7927 -5.7137 2.4798 2.4477 1.6306 2.1669 -1.2169 1.4660 -2.3814 -1.3541 3.7441 -1.1846 -1.7490 0.8895 -1.2694 -2.1909 2.9578 -0.0281 -2.3284 3.4933 -3.0840 -0.1175 -1.3234 0.1351 -1.4829 4.0177 -0.1896 2.9968 5.1451 -0.6712 2.2200 2.7909 -0.7022 2.7937 4.9615 -1.6216 1.2870 2.5878 -1.7143 1.7715 -3.7388 -0.2326 -0.9978 -4.8411 0.2759 -0.2000 -0.9317 1.8654 0.0121 -3.3662 1.9861 0.7448 2.9782 -2.4507 -1.3998 1.5874 -0.0415 -1.8856 -5.8820 1.8488 1.3184 3.6272 -2.1390 1.0293 1.0189 1.1059 -1.3554 -2.5466 0.3660 -0.8839 -0.3917 1.0116 -0.8976 -4.6752 1.3484 0.6006 -2.3401 1.4764 0.0452
-6.4370 3.9503 0.6122 -7.7593 2.0390 0.3106 0.3762 1.1986 -3.0988 1.4801 -1.1068 0.5318 3.1670 -0.3469 -1.1544 0.5508 -1.4614 -0.6095 2.1903 -0.7276 -2.2521 3.7601 -0.5705 1.2339 -2.0076 -0.4138 -0.9363 7.1427 -2.6412 2.8027 5.8225 -3.2428 2.8555 7.3255 -1.4765 2.1558 4.7767 -2.6267 2.2756 6.1935 -0.8027 1.5456 -4.2379 -0.3781 0.1957 -5.3607 0.4986 0.4997 -1.9135 1.8256 -1.5454 -4.2378 2.3317 -0.6656 2.9386 -1.1607 0.1090 0.8262 -0.6363 -1.7714 -6.5828 2.6032 0.3409 4.9682 -1.3572 1.5921 0.0459 0.4352 -2.1883 -3.2031 0.1271 -0.4906 -1.2635 0.6327 -1.5153 -5.3776 1.7731 0.0569 -3.1835 1.5339 -0.8903
-6.6852 1.6439 1.2435 -5.1649 2.1193 2.9613 2.0236 1.9552 -1.0234 1.5670 -2.5352 -2.0057 3.9164 -1.4089 -2.0072 1.0654 -1.2159 -2.5484 3.2238 -0.1252 -2.4177 3.1884 -2.9655 -0.1274 -1.0530 0.1182 -1.4512 2.6656 0.2909 2.6056 1.5310 -0.5009 2.1667 3.9084 -0.0436 2.2155 1.7146 -1.5442 1.3380 4.1088 -1.1706 1.3226 -3.4672 -0.1792 -0.9061 -4.5063 0.2819 -0.0018 -0.5138 1.6393 0.2135 -2.8995 1.7711 1.0893 3.0170 -2.5480 -1.5743 1.8387 -0.1144 -2.0212 -5.3994 1.6863 1.7534 3.0512 -1.8669 0.8676 1.3435 0.9677 -1.3114 -2.2369 0.3311 -0.7686 -0.0559 0.8824 -0.8189 -4.2472 1.2243 0.9274 -1.9343 1.3068 0.2789
-7.3996 2.8855 -1.2408 -7.6042 2.0740 0.9467 0.0060 -0.0192 -3.3682 1.5554 -0.5945 0.9518 3.1382 -0.5081 -0.9796 0.5160 -1.2249 0.0389 2.0663 -1.1212 -1.8577 3.9856 -0.2400 1.3352 -1.4752 0.7125 -0.1787 7.2744 -2.8411 2.1994 6.1518 -2.7277 3.1130 7.3001 -2.1122 1.0693 5.1281 -1.9045 2.8241 6.1984 -1.2188 0.7590 -3.4022 1.5246 1.1775 -4.7995 1.9072 1.0746 -2.5659 0.4945 -2.2181 -4.7720 1.3783 -1.3149 2.9547 -0.9257 0.4676 0.7539 -0.8075 -1.3337 -6.8752 2.2761 -0.1178 5.1447 -1.1349 1.5917 -0.1690 -0.1888 -2.1602 -2.7707 1.1318 0.0640 -1.4112 0.3128 -1.5253 -5.4502 1.8404 -0.1048 -3.4790 1.0314 -1.2131
-5.9947 -0.3761 1.3454 -6.0210 1.7354 2.3555 2.0638 1.5312 -1.5496 1.2882 -2.9376 -1.4046 3.6724 -2.0094 -1.9011 0.7909 -1.8063 -2.2792 3.0013 -0.8486 -2.6054 3.0817 -2.9693 0.3727 -0.6030 2.0689 -1.0411 2.7476 0.8670 2.2515 3.9794 0.4611 1.6004 1.7103 0.0141 2.3229 4.0820 -0.7672 1.0626 1.8100 -1.3014 1.7149 -2.7095 2.9545 -0.0363 -3.9396 2.5329 0.6157 -0.8983 -0.1717 -0.5230 -3.1587 0.2152 0.5741 2.7710 -2.9304 -1.1096 1.6444 -0.6468 -2.1614 -5.4413 0.8698 1.5688 2.9384 -1.6660 1.0795 1.2912 0.5713 -1.6139 -1.8132 2.0167 -0.3718 -0.1043 0.7490 -1.1305 -4.1518 1.2344 0.9131 -2.0374 0.6092 -0.0494
-7.3038 0.2410 -0.0129 -7.6164 2.5603 -0.0608 1.2731 1.2905 -1.4840 0.9780 -2.1610 0.5135 2.9250 -1.3437 -0.9240 0.0924 -1.9502 -0.6941 1.9458 -1.3251 -2.0800 3.1374 -1.8261 1.5348 -1.2105 2.0085 -0.3263 7.3571 -1.2473 1.8414 6.7533 -2.5253 2.1738 6.5929 -0.2368 1.3903 5.4303 -2.7074 2.0148 5.1606 -0.4226 1.2531 -3.3742 3.0843 0.3350 -4.8145 2.8635 0.3381 -2.0945 0.1278 -1.3709 -4.4900 0.7606 -0.8613 2.4722 -2.2284 0.2298 0.6419 -0.9476 -1.5837 -6.8143 1.5314 -0.0940 4.6070 -1.6215 1.5138 0.4190 0.4123 -1.3589 -2.5864 2.1472 -0.2115 -0.9699 0.7921 -1.0029 -5.3459 1.7601 -0.2284 -3.1653 0.9635 -0.8448
-5.7768 4.4068 0.1143 -7.4801 2.8032 0.2037 -0.1514 -2.0681 -1.7001 2.7476 1.2818 -0.5660 3.2125 -1.1005 -1.1760 1.2977 1.1534 -1.0052 2.2045 -0.7651 -2.2622 4.6367 0.0744 0.5342 -2.2749 -0.9108 -0.3006 5.7695 -3.4276 2.7346 4.5975 -2.6622 3.1190 6.5264 -3.0246 1.6986 4.2657 -1.5501 2.4389 6.1579 -1.8349 0.9519 -4.5585 -0.3036 0.5138 -5.4993 0.8060 0.5839 -1.7538 1.0869 -1.3646 -3.9542 2.1844 -0.7169 3.2576 -0.0568 -0.0735 1.0390 -0.0877 -1.7225 -6.2108 3.0945 0.1143 5.0619 -1.1339 1.2950 -0.1022 -0.8502 -1.5107 -3.3910 -0.1116 -0.1161 -1.3219 -0.1549 -1.0223 -5.2169 1.9865 -0.0058 -3.0828 1.1647 -0.7596
-7.1403 3.3413 0.4255 -7.9685 1.1750 0.1426 1.0165 2.2112 -0.2322 1.6608 -2.2594 -1.0181 3.3087 -0.3593 -0.5818 0.6254 -1.1857 -1.2957 2.5019 0.3470 -1.6461 3.4032 -2.5352 0.7054 -1.8126 0.1552 -1.2571 7.1991 -1.6318 2.4767 6.0347 -0.8048 2.7340 7.0913 -2.7213 1.6952 4.8532 -1.1162 2.1731 5.8178 -3.0476 1.0737 -4.2757 -0.2210 -1.3462 -5.5450 0.3514 -0.9348 -1.8118 2.1009 0.0031 -4.3603 2.1751 0.1829 3.0633 -1.8527 -0.6085 1.0964 0.1830 -1.3423 -6.9565 2.0026 0.1384 4.7515 -2.2497 1.2666 0.4345 1.2284 -0.6970 -3.1491 0.4178 -1.0062 -1.0559 1.1653 -0.6355 -5.5947 1.4813 -0.1995 -3.1877 1.6490 -0.2162
-7.9106 1.1895 -0.2454 -7.3648 3.3142 0.5718 -0.4881 -2.0900 -1.4579 2.5153 0.9922 0.2793 2.7199 -1.4932 -0.1537 1.0868 0.8572 -0.2062 2.0639 -1.0351 -1.4394 4.6341 -0.1372 0.7448 -1.5708 1.3398 -1.2469 6.9659 -3.4408 2.1443 6.5033 -2.4164 3.0638 6.6672 -3.3562 0.8359 5.7552 -1.3926 2.6140 5.8796 -2.2405 0.3465 -3.4345 2.9879 -1.0059 -4.8461 3.0874 -0.6692 -2.7405 -0.5679 -0.6144 -4.9277 0.6751 -0.2829 3.1282 -0.3233 0.7296 0.8853 -0.2492 -1.1285 -6.9948 2.1890 0.0222 5.4093 -1.3173 1.2051 -0.3486 -0.8917 -1.2093 -2.8600 1.7779 -0.9848 -1.5455 -0.0439 -0.9910 -5.5555 1.9943 -0.3202 -3.6264 0.5904 -0.6017
-6.5671 0.6316 -0.0438 -6.2847 1.3291 2.1731 1.9747 1.5016 -1.5568 1.1715 -2.9658 -1.1919 3.4978 -2.2354 -2.0554 0.6752 -1.8612 -2.0981 2.8927 -0.9222 -2.5148 3.1618 -2.9724 0.3683 -0.2500 1.6783 0.1153 3.1868 0.9738 2.0351 4.2678 0.5168 1.1818 2.1840 0.1375 2.3581 4.2673 -0.7442 0.7161 2.1576 -1.2096 1.8140 -2.2659 2.4869 1.3485 -3.6958 2.2567 1.4940 -1.2977 0.1313 -1.2608 -3.5815 0.5121 -0.2156 2.6762 -3.0313 -1.0649 1.5527 -0.7137 -2.0198 -5.7776 1.0878 0.9945 3.1438 -1.6236 0.9978 1.2060 0.5370 -1.5450 -1.5895 1.7492 0.4576 -0.1177 0.6920 -0.8881 -4.3161 1.2980 0.7751 -2.2723 0.7598 -0.3740
-7.4998 1.8230 1.0810 -7.5759 3.3592 -0.6832 -0.6330 -2.3113 -0.6437 2.5531 0.9957 -0.0587 2.6061 -1.5086 0.2533 1.0740 0.7821 -0.3151 1.9113 -1.3966 -1.0869 4.6870 -0.1032 0.4468 -1.6298 1.0804 -1.3534 7.0270 -3.3607 1.9423 6.2388 -3.5028 0.7326 7.0372 -2.1916 2.6076 5.5243 -2.4608 0.2751 6.2349 -1.0769 2.1330 -3.4230 2.8205 -1.4316 -4.7950 3.0772 -1.0196 -2.7977 -0.5325 -0.1490 -4.9300 0.8321 -0.0646 3.1893 -0.1700 0.6838 0.7824 -0.4972 -0.9485 -6.9199 2.4619 0.0015 5.4781 -1.2179 1.0302 -0.4616 -1.0978 -0.7640 -2.8829 1.6309 -1.1354 -1.6236 -0.1826 -0.7330 -5.5223 2.1249 -0.3993 -3.6490 0.6225 -0.4012
-8.0071 1.9900 -0.1333 -6.6518 3.7827 0.5317 0.7031 1.6472 -2.3731 1.3873 -1.1976 0.7520 3.1478 -0.4294 -0.8423 0.4542 -1.3845 -0.4249 2.1755 -0.6689 -1.9841 3.6878 -0.9173 1.5281 -2.0453 -0.2850 -1.0218 7.5215 -2.6514 2.2340 6.3457 -3.1315 2.9372 7.3973 -1.7159 1.2760 5.1314 -2.6375 2.6356 6.0917 -1.1578 0.9747 -4.4050 -0.3921 -0.2035 -5.5628 0.4420 0.0844 -1.8738 2.0223 -1.2333 -4.2956 2.4216 -0.5920 2.8440 -1.3343 0.3427 0.8102 -0.5061 -1.5258 -6.7675 2.5546 0.1060 4.9977 -1.6132 1.6128 0.1787 0.7119 -1.7655 -3.2895 0.1992 -0.6529 -1.2356 0.8264 -1.3251 -5.5211 1.7730 -0.1312 -3.2189 1.6515 -0.8067
-8.1717 1.4830 -0.3855 -7.0972 2.2295 1.5604 0.6800 1.4857 -2.1334 1.3409 -1.9164 1.1393 3.1340 -0.3368 0.6104 0.4817 -1.3146 0.0264 2.3459 0.1645 -0.5666 3.6896 -2.3646 1.9355 -2.0319 1.3712 -2.1788 7.8476 -2.1488 0.8820 7.0834 -3.3625 0.6531 7.2714 -1.0933 1.4840 5.7877 -3.4227 1.0118 5.8802 -1.1696 1.8934 -4.3807 2.1782 -2.3453 -5.6199 2.2843 -1.5933 -2.0407 0.7071 0.0449 -4.5277 1.2278 0.3300 2.8226 -1.7996 0.8245 0.9187 0.0233 -0.3592 -7.0353 1.8429 0.3163 5.1513 -2.2722 1.6323 0.1708 0.7938 -1.2451 -3.3200 1.6170 -1.7485 -1.3068 0.8255 -1.0931 -5.6997 1.7959 -0.3390 -3.3741 1.1713 -0.3566
-7.2207 2.4906 -1.5931 -7.6847 1.6664 0.5534 0.6025 0.6291 -2.6288 1.7200 -1.6723 1.3714 2.5304 -2.1267 -1.0026 0.7059 -0.7729 0.7045 2.4720 -0.6138 -1.0212 3.6379 -3.2228 0.9779 -1.2953 1.2190 0.3254 6.8090 -0.3460 1.0374 6.6999 -1.3189 -0.0341 5.9384 -0.3702 2.0621 5.7200 -2.2391 -0.0101 4.8740 -1.3570 2.0840 -3.4577 1.8870 1.3956 -4.8755 2.0671 1.1064 -2.1424 0.5918 -1.7514 -4.5144 1.2282 -1.1614 2.3506 -2.6588 0.4079 1.1831 -0.1691 -0.5311 -6.8211 1.9828 -0.3713 4.7529 -2.2391 1.0748 0.3104 0.3899 -1.4568 -2.6617 1.4315 0.4177 -1.0468 0.6989 -0.9598 -5.3733 1.7569 -0.1089 -3.2135 1.0675 -0.8879
-7.3654 3.5691 -1.1567 -7.7412 1.7259 0.2429 -0.6356 -2.3624 -0.0435 2.6105 0.9522 -0.5934 2.6144 -1.2902 0.5844 1.1507 0.6601 -0.8924 1.9136 -1.6563 -0.7057 4.7365 0.0659 0.2665 -1.4681 1.1121 -0.4485 6.7385 -3.3786 1.8332 6.1804 -3.3834 0.4934 6.6762 -2.2656 2.5858 5.6001 -2.2736 0.0045 6.0160 -1.0772 2.0730 -3.1775 2.9203 -0.4003 -4.6114 3.1474 -0.3930 -2.8939 -0.7118 -0.5560 -4.9961 0.7305 -0.4999 3.2327 0.0953 0.4981 0.7975 -0.7526 -0.8929 -6.9207 2.4649 -0.4508 5.4729 -1.0908 0.8428 -0.4482 -1.2154 -0.4582 -2.7378 1.6566 -0.4377 -1.6025 -0.2830 -0.5542 -5.4737 2.1127 -0.4477 -3.6674 0.5281 -0.4937
-6.1506 3.3307 1.8578 -7.4117 3.3956 -0.1121 -0.1482 -1.7693 -1.8990 2.5447 1.2285 0.4101 2.8014 -1.2118 -0.2176 1.1693 1.1684 -0.2515 2.2714 -0.6210 -1.5053 4.5998 -0.0352 1.0742 -2.5609 -0.3824 -1.9279 6.5478 -3.7775 1.9010 6.5159 -3.2294 0.5577 5.9913 -3.0930 2.9163 5.9209 -2.0448 0.3273 5.3338 -1.8202 2.6653 -4.9612 0.3260 -1.8247 -5.8658 1.2305 -1.1233 -1.7624 0.8969 -0.1651 -4.0124 1.9819 0.2777 3.1034 -0.1338 0.8092 1.0400 0.0905 -1.2230 -6.3752 2.9530 0.5466 5.2692 -1.3272 1.4147 -0.1355 -0.6326 -1.4158 -3.6752 0.2869 -1.4456 -1.4422 0.0339 -1.1633 -5.4130 2.0347 -0.1377 -3.1946 1.1206 -0.3458
-6.6305 3.1148 1.6614 -8.0527 1.9124 0.2462 0.2308 0.3210 -2.8991 1.7938 -0.5436 1.5099 3.3729 0.2466 -0.1953 0.7051 -0.6817 0.4528 2.3020 0.0920 -1.2472 4.2605 -0.6507 1.9289 -2.4268 0.2724 -2.2647 7.4104 -3.4934 1.3119 7.4900 -2.1598 0.7439 6.3404 -3.8499 2.0448 6.4905 -1.2814 0.9433 5.2625 -2.9015 2.2635 -4.8463 0.8683 -2.3165 -5.9120 1.4320 -1.5041 -1.9181 1.0594 -0.1416 -4.3393 1.7063 0.3504 3.1614 -0.7750 0.8971 0.9541 0.1649 -0.7065 -6.8457 2.2861 0.5771 5.3228 -1.6730 1.7183 -0.0240 0.3033 -1.6907 -3.6270 0.7495 -1.7735 -1.4411 0.4642 -1.2671 -5.6839 1.7965 -0.2257 -3.3498 1.2203 -0.4174
-7.7991 1.5784 -1.0625 -7.3639 3.2231 0.5564 -0.6179 -2.3495 -0.7311 2.6556 1.0190 -0.1021 2.6147 -1.3292 0.8340 1.1804 0.7898 -0.3691 1.9731 -1.5374 -0.5219 4.6532 0.2005 1.1341 -1.4650 1.1898 -0.8595 6.7328 -3.5326 0.9539 6.4808 -2.7603 -0.2492 6.3463 -3.0609 2.1526 5.8600 -1.5703 -0.1670 5.6656 -1.7815 2.2424 -3.2361 2.9543 -0.7761 -4.6734 3.1343 -0.6184 -2.8108 -0.6469 -0.4073 -4.9323 0.7256 -0.2711 3.1480 0.0862 0.9874 0.8816 -0.5987 -0.6979 -6.9349 2.3187 -0.2794 5.4185 -1.0731 1.1257 -0.4009 -1.1349 -0.6991 -2.7399 1.7108 -0.7103 -1.5524 -0.1998 -0.6549 -5.4720 2.0761 -0.3715 -3.6117 0.5685 -0.4382
-7.1082 3.1871 0.9363 -8.0556 1.9368 -0.8065 0.8636 2.1235 -1.0811 1.3973 -1.5109 0.8212 3.1685 -0.3809 -0.5414 0.4417 -1.3196 -0.3348 2.1772 -0.2824 -1.6869 3.6747 -1.4437 1.6545 -2.0207 -0.0765 -1.1599 7.8270 -2.4418 1.5551 7.3568 -1.1493 1.0926 6.9482 -3.3638 1.9875 6.0410 -0.8747 1.0932 5.5260 -3.0654 1.9923 -4.4851 -0.4215 -0.9576 -5.7226 0.2744 -0.6365 -1.9435 2.1600 -0.5316 -4.4650 2.3472 -0.3032 2.8520 -1.5478 0.3847 0.8268 -0.1973 -1.1702 -7.0205 2.2528 -0.0775 5.0867 -1.8811 1.5291 0.2460 1.0602 -1.0259 -3.3393 0.2719 -0.9243 -1.2333 1.0611 -0.8963 -5.7155 1.5951 -0.3622 -3.3241 1.6865 -0.5506

>  <OB_ATOM_TYPES> (1d4pB1)
N.pl3 N.pl3 O.2 C.3 C.3 C.3 C.3 C.3 N.ar C.ar C.ar C.ar C.ar C.ar C.ar C.ar C.ar C.ar C.3 N.am C.2 C.ar C.2 C.ar C.ar C.ar C.ar

>  <ENSEMBLE_RMSD> (1d4pB1)
1.226 1.351 1.556 1.622 1.637 1.647 1.665 1.684 1.726 1.762 1.772 1.782 1.790 1.825 1.837 1.874 1.874 1.878 1.939 1.940 1.965 1.979 2.007 2.025 2.067 2.072 2.105 2.107 2.121 2.125 2.127 2.140 2.145 2.162 2.204 2.211 2.211 2.244 2.246 2.268 2.304 2.389 2.403 2.437 2.450 2.454 2.460 2.503 2.595 2.640

$$$$
