
 OpenBabel03071213D

 23 26  0  0  0  0  0  0  0  0999 V2000
  -26.2210   46.1930  -11.7970 C   0  0  0  0  0
  -23.1280   44.0010  -10.4700 C   0  0  0  0  0
  -19.9500   41.6840  -12.9700 C   0  0  0  0  0
  -25.5790   46.0380   -9.5860 O   0  0  0  0  0
  -16.8370   43.6090  -16.5000 O   0  0  0  0  0
  -21.5600   46.3950  -10.0120 C   0  0  0  0  0
  -22.9710   46.9580   -9.9290 C   0  0  0  0  0
  -19.1200   44.8880  -11.5040 C   0  0  0  0  0
  -22.1270   43.6600  -13.4710 C   0  0  0  0  0
  -18.1250   43.8940  -11.8890 C   0  0  0  0  0
  -18.7140   42.2110  -15.7850 C   0  0  0  0  0
  -23.0710   44.6670  -12.9620 C   0  0  0  0  0
  -19.9120   42.8500  -15.1180 C   0  0  0  0  0
  -17.3070   43.5630  -14.2920 C   0  0  0  0  0
  -20.5190   44.4360  -11.7200 C   0  0  0  0  0
  -21.4660   45.5780  -11.3090 C   0  0  0  0  0
  -20.7390   44.1110  -13.1940 C   0  0  0  0  0
  -23.7580   46.3120  -11.0520 C   0  0  0  0  0
  -25.1940   46.1310  -10.7280 C   0  0  0  0  0
  -17.5580   43.1900  -15.5720 C   0  0  0  0  0
  -18.3340   43.5260  -13.3280 C   0  0  0  0  0
  -22.8880   45.1430  -11.4600 C   0  0  0  0  0
  -19.7460   43.0470  -13.6120 C   0  0  0  0  0
  1 19  1  0  0  0
  2 22  1  0  0  0
  3 23  1  0  0  0
  4 19  2  0  0  0
  5 20  2  0  0  0
  6  7  1  0  0  0
  6 16  1  0  0  0
  7 18  1  0  0  0
  8 10  1  0  0  0
  8 15  1  0  0  0
  9 12  1  0  0  0
  9 17  1  0  0  0
 10 21  1  0  0  0
 11 13  1  0  0  0
 11 20  1  0  0  0
 12 22  1  0  0  0
 13 23  1  0  0  0
 14 20  1  0  0  0
 14 21  2  0  0  0
 15 16  1  0  0  0
 15 17  1  0  0  0
 16 22  1  0  0  0
 17 23  1  0  0  0
 18 19  1  0  0  0
 18 22  1  0  0  0
 21 23  1  0  0  0
M  END
>  <MOLID> (1dbbB1)
1dbbB1

>  <SMILES_CANONICAL> (1dbbB1)
O=C1CC[C@]2(C(=C1)CC[C@@H]1[C@@H]2CC[C@]2([C@H]1CC[C@@H]2C(=O)C)C)C	

>  <FINGERPRINT> (1dbbB1)
0000000000000001000000000000000000000001000000000000000000100000000000000000000000000000000000000000000000000000000000000000000000000000000000000000000000000000000000000000000000000000000000000000000000000000000000001000000000000000000000000000010000000010000000010000000001000000000000000000000000010000100000000000000000000000000000000000000000000000010000000000000000010000000000000000010000000010100000000000100000000000000000000000000000000100000000000000000000000100000000000000000000000000000000000000000000000000000000000000000000000000000000000000000000000000001000000000001000000001001000000000000000000000000000000000000000000001000000000000000000000000000000000000000000000000000000101000000000000000000000001000000000000000000000000000000000000000000100000000000000100000000000000000000000000000000000000000000000000000000000000100000001000000000000001000000000000000000000000000000000000000000000000000000000000000000000010000000000000000000000000010010000000010000000000000000000000000000000000000000000000000

>  <MACCS166> (1dbbB1)
000000000000000000000000010000000000000000000000010000000000000001000000000100000000000000000001001000001001000100110100000000111001000100011010111011010100001100111000

>  <OB_MW> (1dbbB1)
314.225

>  <OB_logP> (1dbbB1)
4.7235

>  <OB_PSA> (1dbbB1)
34.14

>  <OB_MR> (1dbbB1)
94.011

>  <OB_ATOMIC_CHARGES> (1dbbB1)
0.072229372 0.0004197655 0.0040559379 -0.2960597945 -0.2913585916 0.0004426797 0.007321051 0.0043510564 0.0003153252 0.0220875801 0.0694488648 0.0004184108 0.011843523 0.0289456819 0.000628935 0.0004288399 0.0034592776 0.0576077724 0.1506715576 0.1725119894 -0.0419909925 0.0065280398 0.0156937187

>  <MCT_HBD> (1dbbB1)
0

>  <MCT_HBA> (1dbbB1)
2

>  <ENSEMBLE_TOTAL> (1dbbB1)
3

>  <ENSEMBLE_COORDS> (1dbbB1)
-5.1417 1.7545 0.7360 -2.0487 -0.4375 2.0630 1.1293 -2.7545 -0.4370 -4.4997 1.5995 2.9470 4.2423 -0.8295 -3.9670 -0.4807 1.9565 2.5210 -1.8917 2.5195 2.6040 1.9593 0.4495 1.0290 -1.0477 -0.7785 -0.9380 2.9543 -0.5445 0.6440 2.3653 -2.2275 -3.2520 -1.9917 0.2285 -0.4290 1.1673 -1.5885 -2.5850 3.7723 -0.8755 -1.7590 0.5603 -0.0025 0.8130 -0.3867 1.1395 1.2240 0.3403 -0.3275 -0.6610 -2.6787 1.8735 1.4810 -4.1147 1.6925 1.8050 3.5213 -1.2485 -3.0390 2.7453 -0.9125 -0.7950 -1.8087 0.7045 1.0730 1.3333 -1.3915 -1.0790
-5.1032 1.4916 0.8676 -2.1464 -0.5532 1.7959 1.0297 -2.5819 -0.4901 -4.4105 1.4054 3.1406 4.5522 -1.5502 -3.7768 -0.4484 1.7947 2.5579 -1.8372 2.4165 2.7158 1.9508 0.7260 0.9547 -1.1141 -0.5503 -1.0154 2.9698 -0.3279 0.5751 2.3116 -2.2190 -3.2786 -2.1250 0.4539 -0.4814 1.1777 -1.4209 -2.6758 3.7808 -0.9002 -1.6537 0.5438 0.1974 0.7670 -0.4837 1.2256 1.1589 0.3338 -0.1837 -0.7002 -2.6757 1.9051 1.5389 -4.0886 1.5811 1.9683 3.6169 -1.5371 -2.9797 2.7385 -0.8365 -0.8131 -1.9005 0.7162 0.9925 1.3278 -1.2525 -1.1682
-4.5141 1.7711 2.9207 -2.7124 -0.7757 1.9892 1.1401 -2.4284 -0.1893 -4.4439 2.3727 0.6169 4.4544 -1.2148 -3.8136 -0.3390 1.1296 2.7333 -1.5936 1.9890 2.8000 1.7619 1.1320 0.6672 -1.1837 -0.8037 -1.0050 2.8038 0.0510 0.5060 2.4698 -2.3358 -3.0817 -2.2495 0.0178 -0.3178 1.2003 -1.7079 -2.5540 3.6945 -0.5980 -1.6749 0.3557 0.6779 0.3497 -0.4838 0.2132 1.5208 0.2074 -0.2032 -0.8769 -2.3471 1.6840 1.5240 -3.8263 1.9734 1.6036 3.6004 -1.3551 -2.9427 2.6607 -0.6140 -0.8247 -1.9725 0.2573 1.1584 1.3168 -1.2324 -1.1092

>  <OB_ATOM_TYPES> (1dbbB1)
C.3 C.3 C.3 O.2 O.2 C.3 C.3 C.3 C.3 C.3 C.3 C.3 C.3 C.2 C.3 C.3 C.3 C.3 C.2 C.2 C.2 C.3 C.3

>  <ENSEMBLE_RMSD> (1dbbB1)
0.000 0.264 0.863

$$$$
