
 OpenBabel03071213D

 31 34  0  0  0  0  0  0  0  0999 V2000
  -26.4930   46.4640  -11.4680 C   0  0  0  0  0
  -23.2940   43.7200  -10.6400 C   0  0  0  0  0
  -20.3900   41.7560  -13.2600 C   0  0  0  0  0
  -26.5180   39.9370  -15.9540 O   0  0  0  0  0
  -25.6730   41.2130  -17.5940 O   0  0  0  0  0
  -25.8590   44.9880   -9.7620 O   0  0  0  0  0
  -23.2940   42.9710  -16.9780 O   0  0  0  0  0
  -16.8450   44.2110  -15.9470 O   0  0  0  0  0
  -21.7300   46.0580   -9.8210 C   0  0  0  0  0
  -23.1990   46.4560   -9.5540 C   0  0  0  0  0
  -19.4230   44.7260  -11.3130 C   0  0  0  0  0
  -25.4310   42.0260  -15.3910 C   0  0  0  0  0
  -18.5810   43.5660  -11.6890 C   0  0  0  0  0
  -23.9190   41.8140  -15.1570 C   0  0  0  0  0
  -18.5110   42.5030  -15.7020 C   0  0  0  0  0
  -19.8260   43.0500  -15.2390 C   0  0  0  0  0
  -23.4310   44.7390  -12.8780 C   0  0  0  0  0
  -22.6820   43.9340  -15.0350 O   0  0  0  0  0
  -17.3990   43.6290  -13.8510 C   0  0  0  0  0
  -22.4570   43.8130  -13.6280 C   0  0  0  0  0
  -20.8230   44.3790  -11.6980 C   0  0  0  0  0
  -21.7330   45.4650  -11.2240 C   0  0  0  0  0
  -24.0040   46.1010  -10.7910 C   0  0  0  0  0
  -20.9420   44.2450  -13.2460 C   0  0  0  0  0
  -25.9500   40.9920  -16.3900 C   0  0  0  0  0
  -25.4650   45.7900  -10.5990 C   0  0  0  0  0
  -23.2140   43.0030  -15.7240 C   0  0  0  0  0
  -17.5170   43.5010  -15.1990 C   0  0  0  0  0
  -18.5580   43.4880  -13.1040 C   0  0  0  0  0
  -23.1300   45.0430  -11.4020 C   0  0  0  0  0
  -19.9450   43.1540  -13.7220 C   0  0  0  0  0
  1 26  1  0  0  0
  2 30  1  0  0  0
  3 31  1  0  0  0
  4 25  1  0  0  0
  5 25  2  0  0  0
  6 26  2  0  0  0
  7 27  2  0  0  0
  8 28  2  0  0  0
  9 10  1  0  0  0
  9 22  1  0  0  0
 10 23  1  0  0  0
 11 13  1  0  0  0
 11 21  1  0  0  0
 12 14  1  0  0  0
 12 25  1  0  0  0
 13 29  1  0  0  0
 14 27  1  0  0  0
 15 16  1  0  0  0
 15 28  1  0  0  0
 16 31  1  0  0  0
 17 20  1  0  0  0
 17 30  1  0  0  0
 18 20  1  0  0  0
 18 27  1  0  0  0
 19 28  1  0  0  0
 19 29  2  0  0  0
 20 24  1  0  0  0
 21 22  1  0  0  0
 21 24  1  0  0  0
 22 30  1  0  0  0
 23 26  1  0  0  0
 23 30  1  0  0  0
 24 31  1  0  0  0
 29 31  1  0  0  0
M  END
>  <MOLID> (1dbmB1)
1dbmB1

>  <SMILES_CANONICAL> (1dbmB1)
O=C(O[C@@H]1C[C@@]2(C)[C@H]([C@H]3[C@H]1[C@@]1(C)CCC(=O)C=C1CC3)CC[C@@H]2C(=O)C)CCC(=O)O	

>  <FINGERPRINT> (1dbmB1)
0000000000000101000000000100000010000001000000000000000000100000000000000000000000000001000000001000000000000001000000110000000000000000001010000000000000000000000000000000000000000000000000000000000000000000000000001000000000000000000000000000010000000010000000010000000001000000000000000000000000010000100000000000000000000000000000000000000000000000010000000000000010010000000000000000010000000010100000000010100000000000100000000000000000000100000000000000000000000100000000000000000000001000000100000000100000000000100000100000000000000000000000000000000000000001001000000001001001000001001000000000000000000000000000000010000000000001000000000000000000000000001000000000000000000000000010101000000000000001000000001000000000000000000000000000000000000000000100000000000000100000000001000000000000000000000000000000000000000000000000000100000001000000000000001000000000000000000000000000000000000000000000000000001000000010000000010000000000000000000000100010010000000010000000000000000000000000000000000000000000000000

>  <MACCS166> (1dbmB1)
000000000000000000000000010000000000000000000000010000000000000001000000000100000000000001000001001000011001000100110100001001111011000100111010111011010110101100111000

>  <OB_MW> (1dbmB1)
430.236

>  <OB_logP> (1dbmB1)
4.11

>  <OB_PSA> (1dbmB1)
97.74

>  <OB_MR> (1dbmB1)
116.296

>  <OB_ATOMIC_CHARGES> (1dbmB1)
0.0722293789 0.0005398086 0.0041750108 -0.2456385047 -0.2456385047 -0.2960597879 -0.2500916698 -0.2913585916 0.0004457518 0.0073226317 0.0044694265 0.1256871821 0.0220906581 0.1213472149 0.0694504127 0.0119610434 0.0440370728 -0.4522532385 0.0289471739 0.1690171823 0.0040980171 0.0006626458 0.0577246443 0.043608014 0.3654342737 0.1506731183 0.3174419991 0.172512002 -0.0418749422 0.0099958971 0.0190446797

>  <MCT_HBD> (1dbmB1)
1

>  <MCT_HBA> (1dbmB1)
6

>  <ENSEMBLE_TOTAL> (1dbmB1)
50

>  <ENSEMBLE_COORDS> (1dbmB1)
-3.7688 3.5127 1.4859 -1.9681 -0.1910 2.0715 1.7874 -1.9797 -0.7203 -3.8574 -3.9184 -1.2095 -3.6810 -3.2322 -3.3795 -4.0182 1.8499 3.1714 -1.5483 -0.2037 -3.6753 5.8449 0.5235 -2.3252 0.0376 1.2499 3.7385 -1.1919 2.1569 3.8757 2.4802 0.2265 2.2490 -2.9872 -1.7822 -1.5788 3.4532 -0.7387 1.6171 -1.4980 -1.7352 -1.8334 3.6637 -0.3925 -2.6803 2.3877 0.0559 -2.0044 -1.1962 1.2656 0.2070 -0.3419 0.3730 -1.8431 4.7075 -0.1391 -0.3756 -0.3054 0.2020 -0.4252 1.0961 0.0614 1.6527 0.1796 1.1024 2.2411 -1.7589 2.3000 2.4626 1.1234 0.2814 0.1314 -3.5305 -3.0358 -2.1832 -3.2544 2.4826 2.4469 -1.1689 -0.4524 -2.5362 4.8210 0.0554 -1.8368 3.5200 -0.4648 0.1520 -1.2357 1.0916 1.7088 2.2086 -0.5250 -0.6047
-4.5603 1.5582 2.0634 -1.0388 0.0449 3.0809 2.3899 -1.9940 0.7178 -4.4139 -3.3639 -3.8388 -4.3395 -1.0841 -3.8696 -3.4232 1.6172 4.1524 -1.0601 0.2754 -2.3059 5.4602 -0.3310 -2.8811 0.1587 2.7982 2.9056 -1.3126 3.1876 3.0397 2.6426 1.6779 1.6250 -3.0135 -2.3225 -2.2789 3.8011 0.7231 1.4685 -1.6181 -2.0194 -2.7743 3.5882 -1.6313 -2.1552 2.2910 -1.0982 -1.5888 -1.3928 0.2740 0.6473 -0.4312 -1.4222 -0.8650 4.6917 0.1549 -0.7155 -0.1879 -0.5777 0.2590 1.3412 0.9176 1.5649 0.1552 1.8234 1.7528 -2.1003 2.1712 2.2113 1.1670 0.1469 0.2509 -3.9783 -2.1561 -3.4082 -3.3601 1.7635 2.9338 -1.0417 -0.8984 -1.9644 4.6403 -0.5726 -2.0000 3.6830 0.0225 0.1562 -1.1273 1.0354 1.9285 2.3896 -0.7206 -0.1121
-3.9274 3.3808 1.4711 -1.8794 -0.3026 1.9489 1.9128 -1.9853 -0.6755 -4.2033 -2.8852 -2.9764 -3.9513 -3.6654 -0.8466 -4.0919 1.5019 2.9239 -1.3334 -0.4325 -3.7789 5.9338 0.5751 -2.2978 -0.0142 1.2889 3.6501 -1.3110 2.0981 3.7654 2.4955 0.3148 2.2419 -3.0125 -1.5375 -1.4799 3.5073 -0.6317 1.6418 -1.5481 -1.7512 -1.7932 3.7874 -0.4171 -2.6615 2.4846 0.0118 -2.0267 -1.1714 1.1987 0.0986 -0.2546 0.2823 -1.9174 4.7801 -0.0499 -0.3470 -0.2276 0.1589 -0.4964 1.1325 0.1200 1.6102 0.1685 1.1428 2.1560 -1.8591 2.1970 2.3420 1.1872 0.2952 0.0825 -3.7512 -2.8163 -1.7017 -3.3618 2.2726 2.3067 -1.0632 -0.5770 -2.5916 4.9144 0.0947 -1.8125 3.5935 -0.3959 0.1706 -1.2351 1.0313 1.6004 2.2989 -0.5172 -0.6067
-4.4667 1.9743 1.8448 -0.3443 2.6851 0.5924 2.3407 -2.1885 0.5322 -4.0225 -3.2439 -1.9182 -4.5779 -2.6546 -4.0519 -3.3217 0.5080 3.3329 -0.6204 0.5210 -2.2909 5.2793 0.0139 -2.8796 0.1148 2.0330 3.5831 -1.2910 2.6280 3.6360 2.5444 1.2303 2.0600 -3.1816 -1.2123 -2.7208 3.7410 0.4057 1.6331 -1.7180 -1.5217 -2.9286 3.4523 -1.4087 -2.2814 2.1641 -0.9782 -1.6180 -1.4222 0.4610 0.5528 -0.5628 -1.3285 -0.9126 4.5592 0.2001 -0.6478 -0.3228 -0.5642 0.2624 1.2838 0.4169 1.8877 0.0338 1.0341 2.4607 -1.9923 2.2552 2.3303 1.0940 -0.0201 0.4330 -3.9889 -2.4355 -3.0042 -3.2583 1.4763 2.5804 -0.9296 -0.6315 -2.0230 4.4878 -0.3550 -2.0173 3.5799 -0.0754 0.2256 -0.9475 1.5874 1.4549 2.2934 -0.8122 -0.1081
-4.3598 2.6124 2.0406 -1.8142 -0.6468 2.1538 1.4867 -1.8871 -0.8224 -3.7619 -3.6000 -1.2773 -2.7019 -3.7893 -3.2898 -2.3549 3.9000 2.0729 -1.1245 -0.1093 -3.7591 5.6792 0.1526 -2.4757 0.0160 1.1704 3.8395 -1.2312 2.0281 4.0410 2.3868 0.1804 2.2308 -1.8601 -2.2807 -1.6108 3.2853 -0.8166 1.5392 -2.3889 -0.8900 -1.8833 3.3593 -0.3543 -2.7671 2.1625 0.1809 -2.0130 -1.4793 1.1295 0.4635 -0.6276 0.7419 -1.7127 4.5113 -0.3038 -0.4912 -0.4981 0.2974 -0.3597 0.9880 0.0796 1.6685 0.0506 1.0488 2.3398 -2.1809 1.6462 2.9081 0.9519 0.3653 0.1570 -2.8026 -3.2878 -2.1807 -2.9019 2.8288 2.3191 -1.3072 -0.0895 -2.5469 4.6019 -0.1224 -1.9551 3.3172 -0.5178 0.0771 -1.3843 0.7950 1.9346 1.9826 -0.4617 -0.6409
-4.1712 2.7337 1.8875 0.2319 3.0077 1.3024 1.9014 -2.0701 -0.2680 -4.4962 -2.8807 -2.1469 -3.7492 -3.4644 -4.2208 -3.3998 0.6793 2.8134 -1.5119 -2.2567 -0.7918 5.5322 0.4254 -2.5938 0.0711 1.3828 3.8956 -1.2204 2.1870 4.0318 2.5003 0.6125 2.3316 -3.1280 -1.3388 -3.2499 3.5832 -0.2507 1.7183 -1.6388 -1.5387 -3.0800 3.3785 -0.6160 -2.5994 2.1304 -0.1843 -1.8642 -1.2309 1.2571 0.3700 -0.6421 -0.2128 -1.4353 4.5871 0.0887 -0.4682 -0.4166 0.0410 -0.0604 1.1487 0.1287 1.8626 -0.0288 0.8155 2.5058 -1.7553 2.4310 2.6169 1.0455 0.1991 0.3381 -3.7994 -2.6758 -3.2901 -3.1307 1.8294 2.4763 -1.2844 -1.3980 -1.6339 4.5724 0.0189 -1.9453 3.4894 -0.2447 0.2246 -0.7109 1.8701 1.6637 2.1423 -0.5761 -0.3904
-4.5004 2.1018 1.8180 -0.2984 2.6929 0.5891 2.2119 -2.2429 0.3900 -3.8711 -3.4402 -3.1939 -4.1656 -2.3410 -1.2157 -3.3637 0.4378 3.0914 -0.6597 0.6347 -2.4167 5.3264 -0.0022 -2.8325 0.0728 1.9550 3.5548 -1.3445 2.5119 3.6414 2.4967 1.1180 2.0644 -3.1237 -1.2212 -3.0796 3.6771 0.2709 1.6423 -1.6321 -1.4445 -3.1466 3.4129 -1.3558 -2.3629 2.1287 -0.9144 -1.6998 -1.4561 0.5147 0.4548 -0.6116 -1.2409 -1.0671 4.5441 0.1169 -0.6190 -0.3771 -0.5154 0.1332 1.2203 0.3434 1.8428 -0.0211 0.9764 2.4149 -2.0077 2.2577 2.2856 1.0484 -0.0294 0.3690 -3.7615 -2.3716 -2.3687 -3.2919 1.4904 2.4626 -0.9462 -0.5302 -2.1792 4.4888 -0.3694 -2.0145 3.5344 -0.1613 0.2171 -0.9614 1.5932 1.4056 2.2313 -0.8352 -0.1806
-3.0685 -0.0631 2.3493 0.1032 3.1511 1.2851 1.7281 -2.0332 -0.5880 -4.0682 -3.7880 -1.4719 -4.3396 -2.3001 -3.1816 -4.2744 1.8955 1.7424 -1.8669 -0.1486 -3.4548 5.9346 0.2757 -2.0830 -0.1896 1.3004 3.6855 -1.4714 2.1388 3.7372 2.3389 0.2661 2.3630 -3.0720 -1.6904 -1.2206 3.3370 -0.7252 1.8010 -1.6350 -1.7589 -1.6884 3.7362 -0.5618 -2.5137 2.4498 -0.0573 -1.9038 -1.1251 1.4492 0.0194 -0.2879 0.2052 -1.8602 4.6934 -0.2935 -0.1695 -0.2934 0.2581 -0.4361 1.0128 0.0829 1.6692 -0.1303 0.8542 2.2508 -1.9771 2.2843 2.2955 1.1141 0.2795 0.1602 -3.8890 -2.5943 -2.0850 -3.2000 1.4119 2.0964 -1.3170 -0.4855 -2.4132 4.8738 -0.1427 -1.6293 3.4724 -0.5448 0.3222 -0.7847 1.9249 1.4187 2.1957 -0.5904 -0.4966
-4.5053 1.0686 2.4402 -0.7531 2.5224 0.1507 2.4658 -2.0107 0.8501 -4.5190 -2.7768 -3.7971 -4.4291 -0.6015 -3.1120 -2.6124 0.4085 3.7217 -0.7518 -0.0496 -2.3671 5.4423 -0.3412 -2.7840 -0.0059 2.6211 3.0725 -1.4804 3.0327 3.1139 2.4684 1.6648 1.7405 -3.1230 -2.2832 -1.9841 3.7096 0.8318 1.5060 -1.7214 -2.2424 -2.5465 3.5915 -1.6603 -2.0342 2.2744 -1.1722 -1.4721 -1.4680 0.2038 0.5919 -0.4262 -1.6177 -0.7067 4.6039 0.2358 -0.6675 -0.2465 -0.6753 0.3454 1.2625 0.7603 1.7211 -0.0122 1.3611 2.2429 -2.2240 2.1551 2.0974 1.1025 0.0415 0.3794 -4.0751 -1.7665 -3.0124 -3.0643 1.1414 2.8448 -0.9503 -1.1504 -1.8729 4.6048 -0.5588 -1.9134 3.6070 0.0847 0.2151 -1.1267 1.5312 1.2423 2.3623 -0.7584 -0.0060
-3.9263 3.8488 2.6204 -1.4227 0.0883 3.2843 1.7211 -2.2486 0.2721 -2.7346 -3.6955 -4.4295 -1.2346 -3.9191 -2.7242 -3.8072 1.7307 3.6971 -1.2393 0.9443 -2.0585 4.5539 -0.3963 -3.4113 0.5050 2.3393 3.5167 -0.8391 3.0266 3.7842 2.6327 1.0743 1.7673 -1.6276 -1.7597 -3.7265 3.5985 0.0351 1.2527 -2.4743 -1.0169 -2.7165 2.5938 -1.5335 -2.6462 1.4755 -0.9468 -1.8195 -1.6244 0.7176 0.8922 -1.1417 -0.9942 -0.8061 4.1202 -0.1880 -1.1123 -0.6666 -0.3460 0.3693 1.2171 0.5388 1.7548 0.2629 1.6100 2.2116 -1.7663 2.5230 2.6818 0.8002 0.0913 0.3439 -1.8274 -3.2285 -3.5388 -3.2188 2.6021 3.0640 -1.5671 -0.2123 -1.8366 3.8084 -0.6682 -2.4753 3.2145 -0.3464 -0.1385 -1.1897 1.1882 2.2606 1.8037 -0.8587 -0.3331
-3.9681 3.3022 1.8507 0.4825 2.8743 1.6678 1.4309 -2.0110 -0.8192 -3.1421 -3.5997 -3.4098 -3.6292 -3.8888 -1.1987 -3.6181 0.9966 2.3399 -1.8327 0.0741 -3.5998 5.6720 0.1697 -2.2837 -0.2605 0.8235 3.8133 -1.3773 1.8442 4.0278 2.1637 -0.0600 2.3200 -1.7835 -2.4868 -1.8693 3.1571 -0.9658 1.6226 -2.2899 -1.0969 -1.5635 3.4013 -0.4665 -2.6771 2.1672 0.0535 -1.9761 -1.1383 1.6714 0.2586 -0.5521 0.5613 -1.7931 4.4529 -0.4007 -0.3556 -0.4932 0.4408 -0.3760 0.8166 -0.1738 1.6458 -0.2998 0.5752 2.3292 -1.7164 2.4447 2.6596 0.9137 0.2233 0.1715 -2.9543 -3.3885 -2.0855 -3.1457 2.1294 2.2936 -1.5529 -0.1104 -2.4203 4.5952 -0.1839 -1.8121 3.2420 -0.6498 0.1620 -0.6797 1.8938 1.6924 1.9386 -0.5954 -0.6150
-4.6357 1.4744 2.0201 -0.6213 -0.4064 3.3825 2.7185 -1.8540 0.8140 -4.3903 -2.6106 -3.8292 -4.7281 -0.7452 -2.5539 -2.8864 2.4285 0.7196 -0.9918 0.3441 -1.9157 5.4088 -0.2933 -3.0051 -0.0529 2.5199 3.0810 -1.5459 2.6227 3.3919 2.4153 1.8952 1.4053 -2.9563 -2.2845 -2.0169 3.7147 1.1442 1.2234 -1.6824 -1.8231 -2.6855 3.6240 -1.6164 -2.1238 2.3127 -1.1601 -1.5265 -1.3521 -0.3040 1.0324 -0.3587 -1.5771 -0.7911 4.5865 0.4174 -0.9223 -0.0820 -0.8913 0.4304 1.2994 0.8929 1.5874 -0.0122 1.5559 1.9189 -2.2122 1.3812 2.7882 1.1359 0.0356 0.3289 -4.1120 -1.7697 -2.8051 -3.2057 1.8209 1.7386 -0.9980 -0.8690 -1.7637 4.5950 -0.4718 -2.1035 3.6313 0.2810 0.0073 -1.0673 0.5250 2.2637 2.4492 -0.6624 -0.0911
-2.8428 0.1585 3.2950 -0.1126 3.1200 0.9586 2.0567 -2.0198 0.1467 -4.7332 -3.1121 -2.9484 -3.8850 -2.5153 -4.9818 -4.2130 1.8579 2.3470 -1.6516 -2.3766 -0.4941 5.5418 -0.0018 -2.7046 0.1776 1.9470 3.7494 -1.1865 2.6343 3.8479 2.5845 1.1296 2.1803 -3.2058 -1.3403 -2.9835 3.7018 0.2293 1.6989 -1.7706 -1.7857 -2.8218 3.3810 -0.9927 -2.4587 2.1485 -0.4511 -1.7729 -1.3162 1.0505 0.4041 -0.5963 -0.4801 -1.2855 4.6297 0.1473 -0.5457 -0.3660 -0.0952 0.0651 1.2626 0.4746 1.8671 0.0649 1.1360 2.4849 -1.8981 2.4275 2.5056 1.0874 0.2770 0.3604 -3.9486 -2.3730 -3.7699 -3.0834 1.5092 2.6867 -1.3619 -1.6018 -1.3949 4.5871 -0.2420 -1.9713 3.5625 -0.0650 0.2375 -0.8282 1.9168 1.5520 2.2137 -0.5630 -0.2540
-3.7849 3.3987 1.6825 0.4544 2.7629 1.7565 1.2384 -1.9316 -1.0748 -3.5002 -3.7721 -1.7215 -1.3686 -3.6172 -2.5211 -3.8303 1.1782 2.5434 -1.2739 -0.4411 -3.6634 5.5641 0.0747 -2.4026 -0.3208 0.6173 3.7903 -1.4455 1.6116 4.0774 2.0488 -0.2634 2.2128 -2.2021 -1.9822 -0.9571 2.9997 -1.1529 1.4403 -2.6310 -0.7421 -1.7132 3.2433 -0.3326 -2.8111 2.0468 0.1988 -2.0540 -1.2389 1.6935 0.3233 -0.7402 0.7527 -1.8075 4.3146 -0.5123 -0.5012 -0.6108 0.5158 -0.4134 0.6963 -0.2712 1.5416 -0.3918 0.4553 2.2955 -1.7362 2.3558 2.7706 0.7973 0.2330 0.0976 -2.2840 -3.1894 -1.8338 -3.1811 2.2047 2.3613 -1.4720 -0.1730 -2.4835 4.4629 -0.2121 -1.9421 3.0940 -0.7266 0.0090 -0.7405 1.8225 1.7522 1.7924 -0.5557 -0.7539
-3.4119 0.0827 2.3888 0.0036 2.8970 1.0594 2.1967 -2.0828 -0.1884 -4.4972 -2.2827 -1.5012 -4.7911 -2.4334 -3.7599 -4.2756 2.2582 1.9505 -1.1281 -2.6162 -0.9689 5.7109 0.5883 -2.5042 -0.0446 1.4027 3.7419 -1.4345 2.0308 3.8154 2.5000 0.7644 2.2939 -3.1541 -0.9174 -2.8418 3.6632 -0.0507 1.7672 -1.8167 -1.5940 -3.0340 3.6520 -0.6275 -2.5337 2.3490 -0.2579 -1.8625 -1.2346 0.9503 0.2051 -0.4053 -0.4983 -1.5291 4.7262 0.2567 -0.3966 -0.2757 -0.1839 -0.1534 1.2074 0.1568 1.8050 -0.0468 0.7583 2.3831 -1.9306 2.1911 2.3766 1.1508 0.1409 0.2786 -4.2238 -1.9591 -2.7879 -3.2914 1.5669 2.2095 -1.1089 -1.6480 -1.7168 4.7668 0.1278 -1.8693 3.6298 -0.1252 0.2732 -0.8188 1.6858 1.4712 2.3333 -0.5817 -0.3721
-4.5607 1.5042 2.1479 -0.6957 2.3778 0.1983 2.6341 -1.9736 0.9845 -3.6349 -2.2665 -4.4182 -3.9885 -0.3803 -3.1837 -3.0081 0.5970 3.7111 -0.8103 -0.3265 -2.0646 4.9177 -0.3701 -3.1809 0.0964 2.6051 3.1585 -1.3767 2.9894 3.2720 2.4509 1.7292 1.6043 -3.1736 -2.3813 -2.1186 3.7191 0.9864 1.2429 -1.6758 -2.5674 -2.1961 3.3582 -1.7924 -2.0575 2.0902 -1.3738 -1.3522 -1.4622 0.1189 0.8361 -0.4977 -1.8183 -0.3299 4.3521 0.3000 -0.9996 -0.2578 -0.8009 0.6360 1.3278 0.7390 1.8036 0.0574 1.3282 2.3612 -2.1274 2.2318 2.1742 1.0777 -0.0692 0.5272 -3.6375 -1.5481 -3.2709 -3.2060 1.3673 2.7752 -0.9862 -1.4154 -1.5354 4.2511 -0.5922 -2.1746 3.5112 0.1341 0.0313 -1.0726 1.4863 1.3714 2.3281 -0.8186 0.0467
-2.6387 3.2946 1.3695 -0.7465 -0.3808 3.5213 1.9612 -2.1105 0.5059 -1.2205 -3.4355 -2.8739 -3.1219 -3.4653 -4.1348 -4.2776 2.1880 2.6944 -1.2365 1.0579 -1.7061 4.6374 -0.6534 -3.3835 0.3275 2.4037 3.4847 -1.0890 2.7324 3.9625 2.4895 1.5344 1.4915 -1.9877 -1.3801 -3.6897 3.5875 0.5682 1.1073 -2.6524 -0.7189 -2.5017 2.6753 -1.6908 -2.4917 1.5334 -1.0854 -1.7078 -1.6614 0.1538 1.2864 -1.1285 -1.0465 -0.7589 4.1205 -0.0495 -1.1760 -0.5973 -0.5787 0.4842 1.2076 0.7568 1.6779 0.0873 1.6087 2.2201 -2.0190 1.7086 3.3086 0.7747 0.1002 0.3598 -2.2045 -2.8577 -3.6039 -3.0827 2.3848 2.4770 -1.6048 -0.1051 -1.6229 3.8617 -0.7713 -2.4390 3.2346 -0.1153 -0.1735 -1.1098 0.7459 2.5631 1.8805 -0.7929 -0.2506
-4.3257 2.6138 2.6237 -0.8606 -0.3664 3.5305 2.0266 -2.0648 0.6472 -2.2459 -3.9832 -3.0898 -2.9976 -3.0243 -5.0180 -2.3679 3.3702 1.4979 -1.4448 0.9826 -1.6392 4.5748 -0.5737 -3.3602 0.3636 2.3611 3.5563 -1.0410 2.6874 4.0627 2.4963 1.5387 1.5880 -1.6235 -1.7602 -3.4949 3.6169 0.6164 1.1688 -2.5010 -0.9789 -2.5423 2.7466 -1.7442 -2.3582 1.5795 -1.1498 -1.6055 -1.6548 0.2124 1.2727 -1.0744 -1.0974 -0.6982 4.1278 0.0141 -1.1301 -0.5743 -0.5603 0.5270 1.2226 0.7393 1.7485 0.1082 1.6003 2.2762 -2.0150 1.7911 3.2882 0.8022 0.1141 0.4109 -2.3773 -2.9604 -3.9677 -2.8491 2.6573 2.3752 -1.6261 -0.2258 -1.5889 3.8617 -0.7391 -2.3748 3.2622 -0.0710 -0.1108 -1.1313 0.7833 2.5703 1.9216 -0.7828 -0.1654
-2.5351 0.2716 3.8503 -0.8173 2.5013 0.1186 2.4893 -1.9652 0.8360 -4.5236 -2.8632 -3.7770 -4.5213 -0.6885 -3.0861 -4.3308 1.0935 2.5180 -0.7608 -0.0638 -2.3683 5.4739 -0.3437 -2.7790 -0.0069 2.6434 3.0431 -1.4892 3.0093 3.1293 2.4556 1.7151 1.7046 -3.1376 -2.3135 -1.9668 3.7076 0.8964 1.4783 -1.7380 -2.2539 -2.5323 3.5921 -1.6247 -2.0462 2.2786 -1.1274 -1.4872 -1.4707 0.1796 0.6075 -0.4159 -1.6237 -0.7063 4.6095 0.2775 -0.6868 -0.2356 -0.6771 0.3427 1.2662 0.7894 1.7005 -0.0094 1.3834 2.2186 -2.2277 2.1464 2.0992 1.1016 0.0664 0.3625 -4.1146 -1.8369 -2.9932 -3.1350 1.1622 2.7996 -0.9594 -1.1608 -1.8659 4.6172 -0.5349 -1.9208 3.6094 0.1365 0.1943 -1.1426 1.5213 1.2347 2.3703 -0.7160 -0.0219
-4.4407 2.1136 1.7999 -0.1313 2.8766 0.8003 2.2841 -2.0984 0.1495 -3.9827 -0.3940 -2.6957 -4.2671 -1.8585 -4.4235 -3.2765 0.3564 2.9092 -1.1397 -2.9021 -0.2256 5.3909 0.3819 -2.8445 0.0549 1.8127 3.6551 -1.3391 2.4343 3.7143 2.5097 1.1254 2.1217 -3.2066 -2.5788 -2.3829 3.7042 0.3397 1.6225 -1.7066 -2.4557 -2.5229 3.4292 -0.9444 -2.5110 2.1505 -0.5676 -1.7989 -1.3290 0.7761 0.3176 -0.5563 -0.9012 -1.2210 4.5670 0.3718 -0.6456 -0.3455 -0.3676 0.0756 1.2458 0.3451 1.8471 -0.0082 0.9549 2.4207 -1.9601 2.2908 2.3210 1.0842 0.0845 0.3493 -3.8628 -1.6003 -3.2998 -3.2254 1.4722 2.3987 -1.1299 -2.1365 -1.1798 4.5229 -0.0131 -2.0718 3.5642 0.0175 0.1688 -0.8722 1.7071 1.4325 2.2719 -0.6423 -0.2807
-3.7740 3.4678 1.6777 0.4758 2.7666 1.7660 1.2390 -1.9470 -1.0570 -1.3784 -3.7348 -2.3787 -3.6209 -3.6557 -1.9635 -3.8268 1.2146 2.4481 -1.2664 -0.3849 -3.6911 5.6100 0.0047 -2.3202 -0.3585 0.6268 3.7855 -1.4821 1.6271 4.0535 2.0268 -0.2745 2.2410 -2.1448 -1.9929 -1.0244 2.9758 -1.1811 1.4865 -2.5901 -0.7276 -1.7259 3.2898 -0.3693 -2.7634 2.0876 0.1733 -2.0233 -1.2057 1.7195 0.3043 -0.6934 0.7619 -1.8178 4.3243 -0.5645 -0.4383 -0.5878 0.5290 -0.4207 0.6825 -0.2742 1.5532 -0.4056 0.4686 2.2895 -1.7365 2.3821 2.7450 0.8083 0.2236 0.1095 -2.4970 -3.1948 -1.8386 -3.1765 2.2476 2.3132 -1.4430 -0.1433 -2.5021 4.4978 -0.2660 -1.8765 3.0941 -0.7643 0.0542 -0.7297 1.8401 1.7418 1.8054 -0.5784 -0.7274
-2.8564 0.4353 3.8123 -0.4394 2.9103 0.6695 1.8214 -2.1926 0.5081 -3.0258 -3.6122 -4.2545 -3.0968 -3.4344 -1.9806 -4.2890 1.9762 2.6998 -1.1394 1.0217 -2.1647 5.0129 -0.6375 -2.9843 0.2586 2.2333 3.5739 -1.1051 2.8951 3.7571 2.4965 1.2254 1.9163 -2.8419 -1.4617 -3.3461 3.5876 0.2710 1.4817 -1.3758 -1.1100 -3.2500 2.9459 -1.6558 -2.3551 1.7569 -1.0183 -1.6742 -1.6220 0.7491 0.6848 -0.9833 -0.9528 -0.9616 4.3162 -0.1816 -0.7880 -0.6002 -0.2898 0.2383 1.1630 0.5278 1.8118 0.0163 1.2288 2.4782 -1.9652 2.4976 2.5515 0.8668 0.1121 0.3697 -2.9962 -2.9263 -3.0870 -3.1376 1.6600 2.9944 -1.1695 -0.1976 -2.0818 4.1521 -0.7946 -2.1231 3.3255 -0.2678 0.1100 -1.0214 1.8285 1.5654 1.9454 -0.8391 -0.1720
-3.4461 0.9513 2.7878 0.4647 3.0726 1.5341 1.3911 -2.0725 -0.3927 -3.5901 -3.7019 -2.8027 -2.8136 -3.6002 -4.9456 -3.8258 3.2917 2.5617 -2.6690 -1.2205 -0.7676 5.2446 0.0050 -2.7322 0.1538 1.3231 4.0289 -1.0367 2.2523 4.2588 2.4230 0.3674 2.3231 -1.5265 -2.6470 -3.1406 3.3683 -0.5866 1.6232 -1.8377 -1.1721 -3.0282 2.9569 -0.6883 -2.6996 1.8114 -0.1345 -1.8850 -1.2417 1.5939 0.5512 -0.9221 0.1713 -1.3531 4.3298 -0.2778 -0.5869 -0.6214 0.3002 0.0265 1.0068 0.0742 1.8881 -0.0558 0.8608 2.6126 -1.5415 2.6849 2.8804 0.8608 0.2430 0.3750 -2.6952 -3.3482 -3.7562 -3.0103 2.3856 2.7277 -1.8652 -0.7857 -1.5814 4.2537 -0.2757 -2.0640 3.2230 -0.4973 0.1362 -0.6124 2.0494 1.8596 1.8231 -0.6181 -0.4391
-4.4666 2.1386 1.9793 -0.1878 2.8934 0.6446 2.3189 -2.0902 0.3231 -3.9343 -2.2557 -4.5101 -4.0129 -0.3382 -3.2739 -3.1700 0.3849 2.9359 -1.3688 -2.8756 0.0154 5.3272 0.2191 -2.9332 0.0917 1.9999 3.5887 -1.2992 2.6305 3.6149 2.5457 1.2678 2.0284 -3.3366 -2.4145 -2.2546 3.7448 0.4713 1.5625 -1.8350 -2.5652 -2.3220 3.4157 -1.1359 -2.4448 2.1395 -0.7287 -1.7432 -1.3346 0.7313 0.3505 -0.5807 -1.0159 -1.1065 4.5590 0.3481 -0.7171 -0.3359 -0.4077 0.1536 1.2872 0.4553 1.8356 0.0400 1.0924 2.3901 -1.9534 2.3566 2.2583 1.0957 0.0849 0.3628 -3.7829 -1.5337 -3.3743 -3.1881 1.5094 2.4426 -1.2634 -2.1901 -0.9924 4.4922 -0.1430 -2.1094 3.5785 0.0356 0.1417 -0.8709 1.7507 1.3801 2.2851 -0.6753 -0.2268
-3.8896 1.0141 2.4199 0.4751 2.7560 1.8002 1.2088 -1.9212 -1.0889 -3.5380 -3.7208 -1.8060 -1.4038 -3.5570 -2.5959 -3.7123 3.3421 1.9509 -1.1681 -0.4276 -3.6530 5.5713 0.0117 -2.3942 -0.3417 0.5741 3.7991 -1.4807 1.5512 4.0872 2.0432 -0.2790 2.2130 -2.2383 -1.9455 -1.0082 2.9837 -1.1782 1.4399 -2.6194 -0.6890 -1.7632 3.2409 -0.3340 -2.8089 2.0505 0.2057 -2.0475 -1.2209 1.7230 0.3443 -0.7307 0.8051 -1.7968 4.3048 -0.5492 -0.4983 -0.6059 0.5464 -0.4062 0.6906 -0.2808 1.5422 -0.3908 0.4477 2.3001 -1.7189 2.3467 2.8023 0.7977 0.2379 0.1035 -2.3200 -3.1388 -1.9045 -3.1607 2.3232 2.3652 -1.4256 -0.1354 -2.4908 4.4614 -0.2460 -1.9370 3.0812 -0.7506 0.0091 -0.7266 1.8253 1.7769 1.7830 -0.5568 -0.7544
-3.4820 2.1949 4.5470 -1.3767 0.1762 3.2566 1.5885 -2.2438 0.2886 -2.4372 -3.8866 -4.1338 -0.5719 -3.4293 -2.9015 -4.1754 2.7864 2.3483 -1.3868 0.9337 -2.0976 4.5919 -0.6214 -3.3695 0.4985 2.4948 3.3601 -0.8415 3.1891 3.6223 2.6128 1.1132 1.6952 -1.9029 -1.6306 -3.8118 3.5502 0.0157 1.2521 -2.6444 -1.0579 -2.6234 2.5559 -1.6302 -2.6233 1.4486 -0.9722 -1.8324 -1.6682 0.7465 0.8641 -1.1852 -0.9821 -0.8196 4.1122 -0.3211 -1.0886 -0.7092 -0.3179 0.3456 1.1840 0.6143 1.6877 0.2383 1.7138 2.0919 -1.8190 2.5821 2.6190 0.7581 0.1214 0.2952 -1.5444 -3.0584 -3.5411 -3.2404 2.5323 3.1063 -1.6905 -0.2192 -1.8270 3.8091 -0.8233 -2.4459 3.1802 -0.4119 -0.1299 -1.2026 1.2615 2.2061 1.7501 -0.8697 -0.3406
-2.7952 -0.1004 3.0404 -0.2338 3.0857 0.7936 2.1170 -2.0482 0.0412 -4.5941 -2.5228 -3.9797 -4.7658 -2.1027 -1.7434 -4.2807 1.4293 1.9818 -1.4572 -2.5086 -0.6879 5.7378 0.2907 -2.5094 -0.0022 1.9018 3.5777 -1.4007 2.5254 3.6030 2.5310 1.0374 2.1950 -3.0599 -1.0150 -3.0539 3.6555 0.1150 1.7771 -1.7683 -1.7949 -2.9615 3.6588 -0.8951 -2.4370 2.3544 -0.4320 -1.8265 -1.2781 0.9583 0.1483 -0.4280 -0.5934 -1.4681 4.7377 0.1707 -0.3899 -0.2795 -0.1604 -0.1233 1.2201 0.4360 1.7584 -0.0058 1.1021 2.3029 -2.0457 2.2442 2.2398 1.1469 0.2496 0.2431 -4.2162 -1.9330 -2.8212 -3.1405 1.2085 2.3877 -1.2309 -1.6894 -1.5688 4.7831 -0.0963 -1.8418 3.6237 -0.1090 0.2990 -0.8976 1.8290 1.3314 2.3143 -0.5826 -0.3080
-2.8977 -0.1286 2.9322 -0.2413 3.0167 0.7837 2.1897 -2.0448 0.0651 -4.5676 -2.5973 -3.7262 -4.8236 -1.6909 -1.6481 -4.3348 1.5111 1.9793 -1.2971 -2.6142 -0.7556 5.7514 0.2305 -2.5472 -0.0261 1.8341 3.5736 -1.4321 2.4358 3.6126 2.5025 1.0918 2.1685 -3.0102 -0.9690 -3.0587 3.6613 0.2079 1.7571 -1.7679 -1.8269 -2.9752 3.6618 -0.9237 -2.4325 2.3619 -0.4491 -1.8241 -1.2933 0.8975 0.1458 -0.4139 -0.6152 -1.4909 4.7360 0.2261 -0.4256 -0.2742 -0.2031 -0.1370 1.2186 0.4211 1.7527 -0.0370 1.0254 2.3047 -2.0611 2.2102 2.2314 1.1451 0.2245 0.2402 -4.2187 -1.7773 -2.7063 -3.1978 1.2207 2.3473 -1.1687 -1.7436 -1.6059 4.7883 -0.1097 -1.8659 3.6309 -0.0507 0.2815 -0.9168 1.7696 1.3299 2.3324 -0.5789 -0.3065
-3.1945 0.0614 3.5907 -1.3382 2.4067 -0.0054 2.4348 -1.9279 0.7009 -4.3638 -2.4312 -3.3648 -4.7354 -0.2135 -2.9715 -4.3896 1.1270 1.8286 -0.2678 -2.8161 -2.3675 5.3879 -0.0524 -2.9441 -0.0899 1.9169 3.3832 -1.5030 2.4424 3.5222 2.6160 1.6334 1.7629 -3.1428 -1.4414 -1.6386 3.7980 0.7289 1.5045 -1.8047 -0.9866 -2.1696 3.6319 -1.4901 -2.1879 2.3171 -1.0246 -1.6067 -1.2561 0.0997 0.8960 -0.3308 -1.6662 -0.4036 4.6734 0.3196 -0.7333 -0.1941 -0.2837 -0.1087 1.2961 0.9030 1.5991 0.1735 1.8878 1.8888 -2.2193 2.0355 2.2508 1.2022 0.2044 0.2471 -4.1581 -1.2594 -2.7180 -3.3605 1.0801 2.5011 -0.7289 -1.9118 -1.6817 4.6206 -0.3706 -2.0410 3.6846 0.1152 0.1486 -1.1708 1.5691 1.2486 2.4123 -0.6557 -0.1306
-3.8763 1.0300 2.4045 0.4979 2.7619 1.7938 1.2144 -1.9421 -1.0575 -1.3857 -3.6560 -2.4478 -3.6395 -3.5862 -2.0978 -3.7126 3.3466 1.8774 -1.2052 -0.3619 -3.6842 5.6135 -0.0745 -2.3174 -0.3693 0.6077 3.7937 -1.4891 1.6111 4.0657 2.0192 -0.2839 2.2464 -2.1914 -1.9547 -1.0634 2.9614 -1.1975 1.4930 -2.5911 -0.6685 -1.7544 3.2835 -0.3854 -2.7584 2.0899 0.1718 -2.0149 -1.1915 1.7442 0.3209 -0.6827 0.8040 -1.8077 4.3151 -0.6020 -0.4331 -0.5840 0.5534 -0.4135 0.6755 -0.2782 1.5575 -0.4080 0.4679 2.2956 -1.7170 2.3882 2.7671 0.8075 0.2281 0.1170 -2.5195 -3.1319 -1.9235 -3.1558 2.3425 2.3198 -1.4162 -0.1043 -2.5044 4.4942 -0.3118 -1.8720 3.0826 -0.7843 0.0599 -0.7163 1.8474 1.7597 1.7966 -0.5815 -0.7222
-4.2251 3.0835 2.3664 -1.3497 0.2287 3.1713 1.6203 -2.1205 0.1976 -2.6232 -2.7794 -5.2486 -0.8186 -1.5083 -4.6668 -3.3907 2.1120 4.3719 -1.7291 -2.5778 0.0093 4.5229 -0.2086 -3.4645 0.5813 2.4980 3.4576 -0.7487 3.1962 3.7589 2.6781 1.1449 1.7285 -1.8764 -2.9397 -3.0396 3.5930 0.0580 1.2165 -2.6045 -1.9623 -2.1451 2.5679 -1.3739 -2.7234 1.4517 -0.7910 -1.8869 -1.5679 0.9844 0.8134 -1.1612 -0.5612 -0.9668 4.1218 -0.1163 -1.1503 -0.6775 -0.1433 0.3018 1.2355 0.6873 1.6947 0.3206 1.8017 2.1410 -1.7377 2.6850 2.7100 0.8044 0.2565 0.2816 -1.6938 -2.3116 -4.3818 -3.1371 2.5736 3.2619 -1.7967 -1.7646 -0.9025 3.7909 -0.5249 -2.5316 3.2079 -0.2821 -0.1848 -1.1347 1.3864 2.2064 1.7761 -0.7303 -0.3962
-4.4312 2.2016 3.1606 -0.4455 -0.0159 3.7458 2.2343 -1.9391 0.8104 -3.1190 -2.9264 -4.7569 -1.2137 -1.6697 -4.7464 -2.9774 2.8764 1.3992 -1.4623 0.3438 -1.6004 4.3236 -0.8403 -3.5478 0.3616 2.8051 3.1769 -1.0370 3.0973 3.7179 2.4360 1.8226 1.1868 -1.9732 -2.7424 -2.7252 3.5960 0.9211 0.8327 -2.6885 -1.7026 -1.8902 2.6670 -1.9753 -2.2498 1.5173 -1.3587 -1.4864 -1.5624 0.0680 1.5451 -1.0278 -1.4827 -0.2556 3.9910 0.0264 -1.3894 -0.4766 -0.7040 0.8065 1.2543 0.9706 1.5876 0.0965 1.7991 2.0812 -1.9148 1.9028 3.3356 0.7913 0.0786 0.4286 -2.0387 -2.3612 -4.1681 -3.0894 2.3736 2.5142 -1.6785 -0.8056 -1.2430 3.7005 -0.9138 -2.4929 3.2094 0.0285 -0.3010 -0.9834 0.9087 2.6613 1.9403 -0.7863 -0.1370
-2.9141 0.4602 3.5465 -0.1893 3.0456 0.7508 2.0524 -2.0835 0.3822 -3.6319 -2.9937 -4.7510 -3.0473 -0.8061 -4.4636 -4.2060 2.0717 2.3593 -1.7358 -2.5941 0.1760 5.0117 -0.0460 -3.0987 0.2628 2.1840 3.6440 -1.1058 2.8562 3.7655 2.5746 1.2884 1.9732 -3.1690 -2.2943 -2.5690 3.6930 0.3994 1.4735 -1.7225 -2.5675 -2.2288 3.0755 -1.2986 -2.4637 1.8610 -0.7878 -1.7223 -1.4223 0.9285 0.5231 -0.8129 -0.8207 -0.9845 4.3890 0.1645 -0.8418 -0.4832 -0.2482 0.2715 1.2626 0.5512 1.8547 0.0831 1.2430 2.4830 -1.8717 2.5611 2.4723 0.9775 0.1747 0.3995 -3.2564 -1.9221 -4.0128 -3.0957 1.7269 2.7613 -1.4449 -2.0209 -0.8652 4.2153 -0.3531 -2.2163 3.4334 -0.0558 0.0717 -0.8653 1.9253 1.5262 2.0823 -0.6882 -0.2167
-3.0555 0.8958 4.0013 -0.2380 2.9146 0.8259 1.7585 -2.2272 0.4862 -3.1324 -3.0537 -4.9818 -2.1574 -4.3830 -3.4042 -4.1002 2.6179 2.7289 -1.3817 0.7617 -2.0149 4.5570 -0.4336 -3.2534 0.4712 2.1993 3.7429 -0.8414 2.9399 3.9842 2.5639 1.1143 1.9627 -1.6516 -2.0261 -3.4907 3.5963 0.1651 1.3934 -2.5127 -1.3137 -2.4714 2.6323 -1.5932 -2.4341 1.4933 -0.9917 -1.6426 -1.6118 0.8639 0.9312 -1.1602 -1.0468 -0.5950 4.1120 -0.1319 -0.9640 -0.6847 -0.2677 0.4922 1.2040 0.4587 1.9363 0.1199 1.2189 2.6553 -1.7195 2.7083 2.7536 0.7982 0.0808 0.5078 -2.3306 -3.2875 -3.9153 -3.0509 2.1152 3.1283 -1.6397 -0.3863 -1.6834 3.8204 -0.6848 -2.3044 3.2128 -0.2841 0.0187 -0.8868 1.9096 1.7652 1.8153 -0.8529 -0.1589
-3.0302 0.9031 3.9975 -0.2353 2.9284 0.7988 1.7603 -2.2425 0.5035 -2.2915 -3.0909 -5.2835 -3.2508 -4.0824 -3.4680 -4.1091 2.5760 2.6897 -1.2277 0.7055 -2.0436 4.5944 -0.4912 -3.2130 0.4677 2.2684 3.7190 -0.8618 2.9847 3.9475 2.5668 1.1504 1.9504 -1.6127 -2.3308 -3.1824 3.5987 0.1799 1.4154 -2.4708 -1.3147 -2.4590 2.6127 -1.5756 -2.4313 1.4931 -0.9805 -1.6119 -1.5936 0.8782 0.9140 -1.1572 -1.0610 -0.5541 4.1229 -0.1646 -0.9341 -0.6777 -0.2788 0.5289 1.2132 0.4836 1.9542 0.1286 1.2639 2.6501 -1.7329 2.7296 2.7167 0.8057 0.0679 0.5388 -2.4910 -3.2599 -3.9548 -3.0491 2.1073 3.1021 -1.5666 -0.4113 -1.6784 3.8283 -0.7076 -2.2785 3.2231 -0.3026 0.0495 -0.8810 1.9306 1.7455 1.8235 -0.8632 -0.1289
-4.2877 2.5295 2.6088 -0.4249 2.7892 0.6990 1.7209 -2.3094 0.5321 -0.4832 -3.1663 -3.5809 -2.3555 -3.5992 -4.8086 -3.0271 1.2152 4.1407 -1.6966 0.6827 -1.7567 4.3586 -0.7372 -3.3486 0.5067 2.3428 3.6294 -0.8058 3.0832 3.8777 2.5362 1.1411 1.8309 -2.0827 -1.4622 -3.7275 3.5539 0.1624 1.2843 -2.6521 -1.4533 -2.3259 2.4070 -1.7618 -2.4261 1.3229 -1.1108 -1.5987 -1.7019 0.7131 1.1019 -1.3111 -1.1746 -0.4352 3.9843 -0.2875 -1.0685 -0.7702 -0.4016 0.6312 1.1841 0.4740 1.9200 0.1284 1.2748 2.6396 -1.7581 2.7131 2.7402 0.7066 -0.0149 0.5494 -1.6958 -2.8564 -4.0981 -3.0184 2.0729 3.2621 -1.8488 -0.5016 -1.4913 3.6347 -0.8997 -2.3704 3.1194 -0.3668 -0.0462 -0.9601 1.8552 1.7717 1.7161 -0.9458 -0.1365
-2.9551 2.1407 5.0057 -0.9705 0.3765 3.4884 1.9616 -2.0318 0.8186 -1.7160 -1.9981 -5.4799 -2.8876 -3.7730 -4.6490 -4.3169 2.2791 3.0600 -1.3659 0.4069 -1.9760 4.4738 -0.9009 -3.3700 0.4034 3.0097 2.9588 -0.9937 3.5243 3.2977 2.5455 1.6499 1.3521 -1.4017 -2.5178 -3.2244 3.6119 0.6191 1.0732 -2.3594 -1.7501 -2.3418 2.6824 -2.0036 -2.2257 1.5258 -1.3341 -1.5186 -1.6722 0.5328 1.1096 -1.1110 -1.2968 -0.4298 4.0903 -0.1608 -1.1751 -0.6136 -0.4385 0.5934 1.2188 0.9641 1.5861 0.1415 1.9709 1.8943 -1.9766 2.5457 2.6539 0.7869 0.1461 0.3594 -2.0966 -2.8538 -4.5016 -3.1813 2.3121 3.5315 -1.5739 -0.7302 -1.5787 3.7959 -1.0039 -2.3522 3.2353 -0.1584 -0.1435 -1.1597 1.3122 2.3037 1.8787 -0.8385 -0.1202
-3.9802 3.2979 2.4511 0.4117 3.1343 1.4465 1.0586 -2.1292 -0.3286 -2.3439 -3.5668 -4.6947 -1.6419 -4.1620 -2.6062 -3.2809 1.1842 3.2964 -2.6448 -1.3983 -0.6884 4.8702 -0.1903 -2.9474 0.2380 1.4565 3.9899 -0.8583 2.4882 4.2569 2.3478 0.3332 2.2116 -1.1384 -1.9715 -3.4761 3.2046 -0.6948 1.5034 -2.1853 -0.9857 -3.0101 2.6065 -0.9445 -2.7765 1.5064 -0.3125 -1.9546 -1.3736 1.6673 0.5994 -1.1608 0.2579 -1.3185 4.0769 -0.4665 -0.7522 -0.8006 0.3648 0.0488 0.9008 0.1161 1.8405 -0.0851 0.9575 2.6068 -1.5297 2.8000 2.9142 0.6943 0.2556 0.3306 -1.7280 -3.3442 -3.5097 -2.9586 2.3118 2.9309 -2.0331 -0.7650 -1.5381 3.9264 -0.4914 -2.2229 2.9962 -0.6333 0.0227 -0.6600 2.1365 1.8568 1.5650 -0.7057 -0.4825
-2.6635 0.4704 3.7678 -0.3308 3.1352 0.7183 1.8792 -2.0672 0.3927 -2.9776 -3.1073 -4.9742 -2.7148 -0.8749 -4.5769 -4.1855 1.9177 2.6470 -2.1868 -2.3051 0.2058 5.0282 -0.3826 -3.0677 0.3266 2.3543 3.5690 -1.0452 3.0066 3.7538 2.5692 1.3421 1.8845 -3.0633 -2.4038 -2.7455 3.6423 0.3749 1.4339 -1.6976 -2.6106 -2.1309 2.9504 -1.4035 -2.4620 1.7668 -0.8019 -1.7376 -1.5051 0.9831 0.5793 -0.9349 -0.7487 -0.9579 4.3420 0.0091 -0.8578 -0.5593 -0.1804 0.2891 1.2315 0.6536 1.7943 0.0913 1.3706 2.4541 -1.8998 2.6124 2.5422 0.9082 0.2424 0.3586 -2.8883 -2.0160 -4.1771 -3.0195 1.6886 2.9653 -1.6500 -1.8994 -0.8160 4.1670 -0.5587 -2.2106 3.3648 -0.1201 0.0496 -0.9271 2.0043 1.5408 1.9818 -0.6854 -0.2320
-4.1244 3.2415 3.0957 -1.3333 -0.2614 3.2048 1.2674 -2.0851 -0.0775 -0.1192 -3.1929 -4.0965 -2.0774 -3.2797 -5.2664 -2.2283 3.9294 1.8280 -2.9896 -1.4022 -0.4779 4.6866 -0.3993 -3.2429 0.5421 2.0387 3.8415 -0.7470 2.7701 4.2103 2.5935 0.8748 1.9328 -2.0889 -2.8078 -2.9007 3.4276 -0.2477 1.3619 -2.2202 -1.3091 -2.7581 2.4561 -1.1223 -2.7689 1.4107 -0.4340 -1.9193 -1.6760 0.9552 1.0760 -1.2718 0.0135 -1.0809 4.0861 -0.3370 -0.9723 -0.7960 0.0050 0.2648 1.1319 0.5106 1.8171 0.2455 1.5562 2.4443 -1.8618 2.1241 3.3854 0.7083 0.3260 0.3503 -1.4649 -3.1088 -4.2234 -2.6847 3.1726 2.6807 -2.2078 -0.9520 -1.3046 3.8106 -0.5860 -2.4033 3.0889 -0.4270 -0.0814 -1.1907 1.0825 2.5037 1.6266 -0.6481 -0.4235
-3.3879 1.0300 3.2326 0.4473 3.1128 1.5378 0.9344 -2.1272 -0.3859 -1.0809 -3.9950 -2.6290 -2.3714 -3.5981 -4.4688 -3.8341 3.2953 2.6458 -2.7094 -1.2516 -0.8245 4.8676 -0.2989 -2.9027 0.1675 1.3358 4.0147 -0.9089 2.3807 4.3061 2.2798 0.2150 2.2279 -1.0182 -1.8373 -3.5187 3.1062 -0.8306 1.5094 -2.0982 -0.8609 -3.1150 2.5713 -0.9628 -2.7846 1.4877 -0.2970 -1.9670 -1.3657 1.7361 0.6029 -1.1686 0.3837 -1.3624 4.0264 -0.5928 -0.7277 -0.8264 0.4347 0.0131 0.8323 0.0644 1.8251 -0.1377 0.9110 2.6034 -1.5228 2.7886 2.9630 0.6597 0.2589 0.3169 -1.5886 -3.2152 -3.6134 -2.9908 2.4437 2.9232 -2.0361 -0.6316 -1.6371 3.8997 -0.5777 -2.2010 2.9268 -0.7259 0.0270 -0.6634 2.1354 1.8914 1.5026 -0.7231 -0.5027
-4.5783 2.6487 3.0930 -0.8368 0.2925 3.3909 2.7123 -1.7668 1.0882 -2.8868 -1.7310 -4.3282 -2.4808 0.5152 -4.3252 -3.7258 0.4552 3.4043 -1.6355 -3.3849 -1.3641 4.2998 -0.5437 -3.6159 -0.0979 2.9978 2.4422 -1.5756 3.1630 2.8098 2.3119 1.9750 0.9174 -2.4570 -0.7209 -2.2599 3.6015 1.2050 0.7566 -1.0400 -1.1390 -1.9447 3.2722 -2.0456 -2.0604 2.0286 -1.6871 -1.2835 -1.4877 -0.1868 1.0367 -0.3601 -2.2062 0.0901 4.1350 0.2468 -1.4081 -0.2040 -0.9548 0.7542 1.2026 1.0389 1.3445 -0.0914 1.7920 1.5231 -2.2934 1.9663 2.1799 0.9912 -0.0975 0.3306 -2.5905 -0.5493 -3.7364 -3.5316 1.5825 2.9557 -1.0959 -2.3315 -1.0417 3.9296 -0.7614 -2.4670 3.4037 0.1581 -0.2891 -1.2092 0.9108 2.0476 2.2898 -0.8412 -0.0406
-2.6240 0.7128 4.2043 -0.5144 3.0116 0.7341 1.3695 -2.2595 0.3930 -2.0734 -3.7509 -4.5280 -0.7276 -3.5945 -2.6920 -4.1492 2.2967 3.2934 -1.4227 0.9823 -2.0355 4.4451 -0.9754 -3.2589 0.4581 2.3800 3.5480 -0.8373 3.1382 3.8403 2.4566 1.0962 1.7793 -1.5461 -1.6001 -3.7797 3.4071 0.0249 1.2921 -2.5026 -1.0489 -2.7461 2.3137 -1.7555 -2.5092 1.2547 -1.0004 -1.7402 -1.8010 0.9182 0.9232 -1.4235 -0.9004 -0.6906 3.9387 -0.4706 -1.0213 -0.8895 -0.1968 0.4228 1.0573 0.5365 1.7874 0.0391 1.3485 2.5333 -1.8554 2.7200 2.7737 0.6025 0.1264 0.3877 -1.3947 -3.0727 -3.5725 -2.9787 1.9368 3.4114 -1.7346 -0.1765 -1.8018 3.6258 -1.0444 -2.3475 3.0038 -0.4660 -0.0613 -1.0560 1.9793 1.7113 1.5588 -0.8958 -0.2511
-2.9090 0.7190 3.6199 0.1069 3.3039 1.1779 1.2023 -2.1359 0.0375 -0.4170 -2.5890 -4.5738 -2.5096 -3.3775 -5.0296 -4.0301 2.6685 2.8418 -2.8706 -1.4186 -0.1665 4.7516 -0.6498 -3.0885 0.4043 1.9326 3.8842 -0.8059 2.8358 4.1312 2.5005 0.7796 2.0674 -1.8998 -2.7741 -2.7759 3.3804 -0.2984 1.4719 -2.5079 -1.4112 -2.5421 2.4920 -1.3013 -2.6546 1.4388 -0.5607 -1.8619 -1.4780 1.5049 0.6462 -1.2259 -0.0937 -1.1095 4.0850 -0.4720 -0.8430 -0.7939 0.2126 0.2087 1.0570 0.4008 1.8546 0.0563 1.2355 2.5968 -1.6440 2.8347 2.8468 0.7236 0.2982 0.3662 -1.6800 -2.9476 -4.2425 -2.9555 2.1208 3.0846 -2.2350 -1.0094 -1.1285 3.8460 -0.7779 -2.2697 3.0650 -0.5122 0.0248 -0.7568 2.2083 1.7811 1.6090 -0.7258 -0.3555
-3.1871 0.9393 3.5483 0.2636 3.1635 1.3261 1.0203 -2.1660 -0.1891 -1.9518 -3.4376 -4.8429 -0.5937 -3.7002 -3.0280 -3.9101 3.1002 2.8534 -2.3441 -1.8663 -0.5045 4.5757 -0.3915 -3.1912 0.3606 1.6333 3.9665 -0.7693 2.6189 4.2643 2.3836 0.4992 2.0975 -1.3535 -1.5037 -3.6687 3.2329 -0.5384 1.3946 -2.5191 -1.1275 -2.7819 2.3286 -1.1119 -2.8040 1.2885 -0.4330 -1.9437 -1.5081 1.5724 0.7027 -1.3418 0.1055 -1.1748 3.9353 -0.4717 -0.9309 -0.9114 0.2720 0.1688 0.9250 0.1980 1.8502 -0.0388 1.0410 2.6408 -1.5397 2.8346 2.9581 0.6051 0.2409 0.3545 -1.2499 -2.9907 -3.7752 -2.9632 2.3542 3.0997 -2.0697 -1.0316 -1.3561 3.6832 -0.6218 -2.3808 2.9172 -0.5904 -0.0670 -0.7257 2.1462 1.8733 1.4575 -0.7369 -0.4601
-3.1863 -0.0758 3.6859 -1.6254 2.1003 -0.0870 2.5578 -1.7577 0.8270 -3.5416 0.6409 -3.1749 -4.4763 -1.3978 -3.5964 -4.4671 0.9137 1.9393 -1.1789 -3.6070 -1.2461 5.4002 -0.2969 -3.0225 -0.0988 2.0128 3.2397 -1.5556 2.3396 3.4860 2.4977 1.9169 1.4243 -2.9641 -1.1181 -1.7423 3.7429 1.0802 1.2481 -1.5372 -1.4200 -2.1453 3.6494 -1.6428 -2.1021 2.3205 -1.1553 -1.5704 -1.2285 -0.0918 1.0144 -0.1569 -1.8645 -0.2155 4.6241 0.3902 -0.9133 -0.2051 -0.4511 -0.0429 1.2528 1.0523 1.4237 0.0517 1.9283 1.7307 -2.3032 1.8746 2.2542 1.1541 0.2128 0.1562 -3.7366 -0.6788 -2.9419 -3.4121 0.9039 2.5718 -0.9697 -2.4014 -1.1634 4.6126 -0.4904 -2.1014 3.6459 0.2747 -0.0053 -1.2862 1.4101 1.2214 2.4198 -0.6018 -0.1521
-2.7132 0.6429 3.9565 -0.3819 3.1123 0.7605 1.6122 -2.1253 0.3454 -2.2225 -2.6982 -5.2564 -1.2696 -0.8392 -4.3393 -4.1701 2.2778 3.0242 -1.8542 -2.6182 0.2442 4.5449 -0.6033 -3.3453 0.4187 2.3487 3.5881 -0.9017 3.0742 3.8468 2.4891 1.2685 1.7530 -1.6654 -2.8041 -2.9904 3.5061 0.2779 1.2298 -2.6238 -2.1913 -1.9942 2.4787 -1.5336 -2.5796 1.3753 -0.8743 -1.7831 -1.6720 1.0214 0.7524 -1.2471 -0.6834 -0.8621 4.0295 -0.1486 -1.1004 -0.7853 -0.1646 0.3792 1.1348 0.6045 1.7746 0.0656 1.3631 2.5053 -1.8456 2.7189 2.6928 0.6987 0.2062 0.3646 -1.6886 -1.9821 -4.2386 -3.0111 1.9089 3.2078 -1.8771 -1.8840 -0.7340 3.7402 -0.7326 -2.4272 3.1143 -0.2229 -0.1247 -0.9793 2.0320 1.6482 1.7003 -0.7515 -0.2981
-2.2142 0.9178 4.5638 -0.9291 2.7864 0.4727 1.7690 -2.1163 0.8101 -2.1163 -3.0838 -5.0131 -0.4099 -1.6599 -4.4959 -4.0921 1.9909 3.5671 -1.6604 0.2824 -1.7908 4.1242 -1.0816 -3.4457 0.4278 2.8302 3.1961 -0.9355 3.4424 3.5207 2.4119 1.5463 1.4225 -1.5524 -2.8735 -2.7518 3.4736 0.5584 0.9928 -2.5479 -1.9269 -2.1174 2.3244 -2.0861 -2.2343 1.2255 -1.3688 -1.4855 -1.8225 0.6002 1.1763 -1.3361 -1.3664 -0.2016 3.8234 -0.2725 -1.2595 -0.7995 -0.4442 0.7394 1.1329 0.8002 1.7028 0.0793 1.5797 2.4318 -1.9790 2.6840 2.6931 0.6105 0.0777 0.4613 -1.2816 -2.4464 -4.1584 -2.8684 1.8700 3.6040 -1.8129 -0.8562 -1.3710 3.4688 -1.1317 -2.4093 3.0158 -0.2324 -0.1907 -1.1848 1.8841 1.6704 1.6554 -0.9041 -0.1001
-4.0883 0.4602 1.9521 0.2553 2.5605 1.7730 1.5303 -1.9569 -1.2711 -3.8247 -2.1243 0.0768 -1.6087 -2.5948 0.3273 -3.9124 2.6705 1.0898 -1.0846 -0.3299 -4.0133 5.8962 0.2955 -2.0476 -0.6722 0.2292 3.4800 -1.8763 1.1498 3.6843 1.9463 -0.3952 2.1464 -2.4792 -1.9808 -1.8380 3.0057 -1.2199 1.4455 -2.5224 -0.4910 -2.0961 3.6631 -0.2273 -2.7206 2.3697 0.2310 -2.0832 -1.1465 1.5654 0.0093 -0.4300 0.6916 -2.0937 4.4884 -0.4457 -0.3165 -0.4413 0.4156 -0.7028 0.6772 -0.4329 1.3319 -0.5335 0.1877 1.9825 -2.0406 1.9661 2.3981 0.9127 0.1453 -0.0657 -2.5526 -2.2507 -0.3681 -3.3973 1.7771 1.7618 -1.2748 -0.0814 -2.8282 4.7728 -0.0759 -1.7208 3.2315 -0.7377 0.0465 -0.8735 1.5793 1.5035 2.0098 -0.5805 -0.8431
-4.5905 1.2345 3.1297 -0.7697 0.3515 3.4231 2.2652 -1.9254 1.0280 -1.0785 0.3023 -4.9054 -1.5983 -1.9019 -4.6211 -2.9862 1.9195 4.7471 -2.5423 -2.9592 -1.2494 4.1015 -0.8488 -3.6211 -0.0545 3.0780 2.3644 -1.4915 3.3591 2.7960 2.2322 1.8489 0.8507 -0.7906 -0.5832 -2.7675 3.4448 0.9567 0.7295 -1.9534 -0.7098 -1.8142 2.8568 -2.2346 -2.1159 1.6407 -1.7672 -1.3528 -1.7191 -0.0313 1.1567 -0.8319 -1.9983 -0.1201 3.9277 -0.0435 -1.4224 -0.5277 -0.8694 0.7014 1.0463 1.0136 1.2700 -0.1844 1.8504 1.4922 -2.3023 2.1098 2.4402 0.7229 -0.0953 0.2606 -1.2258 -0.8281 -4.1739 -3.2596 1.7709 3.5580 -1.8399 -1.9794 -1.0243 3.6579 -1.0241 -2.4910 3.1674 -0.0675 -0.3202 -1.2733 1.0264 2.1521 1.9562 -0.9548 -0.1005

>  <OB_ATOM_TYPES> (1dbmB1)
C.3 C.3 C.3 O.co2 O.co2 O.2 O.2 O.2 C.3 C.3 C.3 C.3 C.3 C.3 C.3 C.3 C.3 O.3 C.2 C.3 C.3 C.3 C.3 C.3 C.2 C.2 C.2 C.2 C.2 C.3 C.3

>  <ENSEMBLE_RMSD> (1dbmB1)
0.701 0.857 0.918 0.986 1.067 1.087 1.127 1.174 1.212 1.249 1.258 1.259 1.262 1.291 1.298 1.300 1.302 1.304 1.333 1.348 1.353 1.354 1.356 1.376 1.391 1.411 1.417 1.423 1.439 1.444 1.444 1.467 1.473 1.474 1.478 1.503 1.526 1.529 1.533 1.605 1.616 1.637 1.675 1.715 1.740 1.742 1.767 1.772 1.774 1.944

$$$$
