
 OpenBabel03071213D

 21 22  0  0  0  0  0  0  0  0999 V2000
    8.2680   25.4640   15.8470 C   0  0  0  0  0
    2.0460   27.2620   12.7990 C   0  0  0  0  0
    5.2380   28.8840   15.3710 C   0  0  0  0  0
    6.8030   25.9090    6.7380 N   0  0  0  0  0
    6.5300   22.2160    9.4330 N   0  0  0  0  0
    5.7660   23.8470   11.7890 C   0  0  0  0  0
    7.1040   26.2590   15.8270 O   0  0  0  0  0
    2.8140   27.2690   14.0130 O   0  0  0  0  0
    4.7110   27.6750   15.8490 O   0  0  0  0  0
    5.9830   25.7930   10.1880 C   0  0  0  0  0
    6.3880   25.0710   13.8240 C   0  0  0  0  0
    4.1840   25.5560   12.8500 C   0  0  0  0  0
    6.2400   26.2760    8.9520 N   0  0  0  0  0
    6.6800   24.0740    8.0500 N   0  0  0  0  0
    6.5570   25.4290    7.9930 C   0  0  0  0  0
    5.4170   24.8530   12.8490 C   0  0  0  0  0
    6.4370   23.5410    9.2500 C   0  0  0  0  0
    6.0550   24.4400   10.4130 C   0  0  0  0  0
    6.1740   26.0090   14.8470 C   0  0  0  0  0
    3.9730   26.5030   13.8830 C   0  0  0  0  0
    4.9590   26.7200   14.8540 C   0  0  0  0  0
  1  7  1  0  0  0
  2  8  1  0  0  0
  3  9  1  0  0  0
  4 15  1  0  0  0
  5 17  1  0  0  0
  6 16  1  0  0  0
  6 18  1  0  0  0
  7 19  1  0  0  0
  8 20  1  0  0  0
  9 21  1  0  0  0
 10 13  2  0  0  0
 10 18  1  0  0  0
 11 16  1  0  0  0
 11 19  2  0  0  0
 12 16  2  0  0  0
 12 20  1  0  0  0
 13 15  1  0  0  0
 14 15  2  0  0  0
 14 17  1  0  0  0
 17 18  2  0  0  0
 19 21  1  0  0  0
 20 21  2  0  0  0
M  END
>  <MOLID> (1dg5A1)
1dg5A1

>  <SMILES_CANONICAL> (1dg5A1)
COc1cc(Cc2cnc(nc2N)N)cc(c1OC)OC	

>  <FINGERPRINT> (1dg5A1)
0000100000000000000000000000001101000010000000000000000000001000001000000000000000000001100010000000100000001001000001100001000000000010000000000001000000001000000000000000100001000000000000000100001000000100101000000000000000000001000000000000100000000000000000000100000000000001000000000000000000001000000010000100000000101000000000000000000000000100010000000000000010110000000000000000000000000000010000000000001000100000000000000000000000000000000000010000001000000000000000010000000000001100100000000000110000000000000000010000000000000000000000100000000000000000000001010000000001001000000000000000000001000000001000100000101000000000000000000000000000000000000000000000110000000000000001000000000000100000100000000000100001000000000000000100001000000000000100000000000000000100000000000000000010000000000000000000000000000000000000000001001000000000000000000100000000000000000000000000000000000000000000000000001010001000000000000100011000000000000010100100000000000000000000000000000000100000000000000000010011000000

>  <MACCS166> (1dg5A1)
000000000000000000001000100000000000010000001000010010000000000010000001000111010001000011001000011000000101000010000011100011100010101010011111110011110011111110111000

>  <OB_MW> (1dg5A1)
290.138

>  <OB_logP> (1dg5A1)
2.42

>  <OB_PSA> (1dg5A1)
105.51

>  <OB_MR> (1dg5A1)
79.7698

>  <OB_ATOMIC_CHARGES> (1dg5A1)
0.2526225018 0.2526225018 0.2527710042 -0.0860058169 -0.1073802171 0.0573527248 -0.4682732658 -0.4682732658 -0.4653831289 0.1008245141 0.0363257826 0.0363257826 -0.2098031545 -0.1931506243 0.2578428269 -0.0114102949 0.1704261916 0.0362540366 0.175139815 0.175139815 0.2060322712

>  <MCT_HBD> (1dg5A1)
2

>  <MCT_HBA> (1dg5A1)
7

>  <ENSEMBLE_TOTAL> (1dg5A1)
44

>  <ENSEMBLE_COORDS> (1dg5A1)
2.6334 -0.2050 3.6747 -3.5886 1.5930 0.6267 -0.3966 3.2150 3.1987 1.1684 0.2400 -5.4343 0.8954 -3.4530 -2.7393 0.1314 -1.8220 -0.3833 1.4694 0.5900 3.6547 -2.8206 1.6000 1.8407 -0.9236 2.0060 3.6767 0.3484 0.1240 -1.9843 0.7534 -0.5980 1.6517 -1.4506 -0.1130 0.6777 0.6054 0.6070 -3.2203 1.0454 -1.5950 -4.1223 0.9224 -0.2400 -4.1793 -0.2176 -0.8160 0.6767 0.8024 -2.1280 -2.9223 0.4204 -1.2290 -1.7593 0.5394 0.3400 2.6747 -1.6616 0.8340 1.7107 -0.6756 1.0510 2.6817
1.8197 -0.4118 4.5030 -3.6021 0.9891 1.9801 -0.7052 3.1649 3.3047 0.6048 0.0581 -5.7726 -0.2422 -3.1575 -2.4002 1.0635 -1.4966 -0.4023 1.0976 0.6940 3.9763 -2.6269 1.4361 1.0408 -1.2569 1.8705 3.5178 1.4840 0.0774 -2.3578 1.0372 -0.3937 1.8182 -0.8482 -0.0101 0.3364 1.3901 0.4819 -3.5793 0.2121 -1.5041 -4.0987 0.7241 -0.3524 -4.4571 0.3508 -0.5917 0.5484 0.3043 -1.9342 -2.7855 0.9078 -1.1757 -1.8490 0.4797 0.3519 2.7954 -1.4340 0.8348 1.3676 -0.7602 1.0692 2.5138
1.2468 -0.7110 4.4920 -3.6046 1.3591 2.2044 -0.1881 3.2438 3.3345 1.2591 -0.0352 -5.7601 2.1436 -2.5995 -1.8714 -0.3010 -1.6745 -0.6330 1.5929 0.2191 3.4710 -2.4881 2.0325 1.6348 -0.5195 1.9184 3.7352 -0.6424 -0.4236 -2.8178 0.7014 -0.6447 1.4338 -1.3387 0.2697 0.4989 -0.3266 -0.0374 -4.0069 1.6741 -1.2909 -3.8441 0.8853 -0.4791 -4.5040 -0.3116 -0.5927 0.3904 1.3329 -1.7068 -2.5686 0.2082 -1.2682 -1.9712 0.5981 0.1458 2.5220 -1.4387 1.1461 1.6525 -0.4833 1.1291 2.6074
2.7916 0.6852 2.4466 -3.6379 1.3443 3.0265 -1.0069 1.6935 4.6137 2.2732 -0.0652 -5.2741 0.2469 -3.5374 -2.7652 -0.4468 -1.7082 -0.6244 1.5241 0.9096 3.0511 -3.0464 1.6888 1.7765 -0.7319 2.3247 3.3645 0.7500 0.0250 -2.0994 0.5394 -0.3666 1.2559 -1.7659 0.0194 0.6253 1.3736 0.4372 -3.1483 1.2806 -1.7573 -4.0150 1.6253 -0.4994 -4.1305 -0.6061 -0.6310 0.4006 0.6174 -2.1989 -2.8797 0.3013 -1.3544 -1.8736 0.5143 0.6388 2.1556 -1.8460 1.0232 1.6821 -0.7498 1.3286 2.4120
2.7407 1.1354 3.3467 -3.0831 1.8863 0.2531 -1.5317 1.3475 4.6401 1.0860 0.0922 -5.5825 -0.8713 -2.9246 -2.5104 0.6339 -1.7759 -0.3087 1.3879 0.9034 3.7244 -2.8453 1.2454 1.5012 -1.0438 2.0615 3.5090 1.6236 -0.2685 -2.1134 0.9895 -0.3954 1.7334 -1.1493 -0.2420 0.5936 1.7530 0.1960 -3.3106 0.1502 -1.3791 -4.0491 0.9751 -0.3915 -4.2909 0.0957 -0.7591 0.6427 0.0048 -1.8716 -2.7644 0.6934 -1.3414 -1.7342 0.6444 0.5677 2.6134 -1.5448 0.7882 1.5508 -0.7090 1.1253 2.5559
1.9703 -0.7345 3.7873 -2.9454 2.6538 1.4434 0.0527 3.0700 3.1632 1.3573 0.0929 -5.5200 2.3299 -2.0768 -1.4222 -0.4776 -1.8790 -0.6113 1.6680 0.4710 3.0921 -2.9624 1.3752 2.0695 -0.5988 1.8879 3.6228 -0.7800 -0.7772 -2.8577 0.6057 -0.6109 1.2481 -1.7304 -0.2014 0.7539 -0.4080 -0.3367 -4.0105 1.8261 -0.9002 -3.4671 0.9428 -0.4005 -4.2959 -0.5853 -0.8432 0.4531 1.4157 -1.4458 -2.2625 0.1283 -1.3699 -1.8718 0.5653 0.2140 2.3106 -1.7424 0.7944 1.8184 -0.6318 1.0168 2.5566
2.3454 0.3429 4.3239 -2.0830 2.8096 0.1725 -2.2740 0.9842 4.2123 -0.1749 -0.2677 -5.7392 0.6922 -3.4148 -2.3102 1.2586 -1.2744 -0.4085 0.9277 0.2424 4.2347 -2.3617 1.7525 1.0835 -1.2190 1.7777 3.6782 0.8260 0.2477 -2.4033 1.0617 -0.4784 1.9378 -0.6075 0.2668 0.3463 0.4702 0.5304 -3.6088 0.2661 -1.7871 -4.0366 0.1916 -0.5412 -4.4340 0.5054 -0.4545 0.5907 0.6162 -2.0883 -2.7309 0.8800 -1.1099 -1.8417 0.5398 0.2955 2.9135 -1.1835 1.1051 1.3850 -0.6774 1.0615 2.6349
1.4185 -1.1694 4.4172 -3.3064 1.9914 2.0129 -0.1131 3.2824 3.0616 0.5086 -0.1058 -5.7869 2.7226 -1.7535 -1.9277 0.1727 -1.8435 -0.4622 1.1193 0.1320 3.9243 -2.2171 2.1454 1.1084 -0.6836 2.0699 3.5443 -0.7893 -0.9777 -2.6320 0.6181 -0.8339 1.7703 -1.0663 0.1897 0.3581 -0.7666 -0.5460 -3.8451 1.5714 -0.9092 -3.8771 0.4649 -0.5340 -4.4713 -0.1233 -0.7600 0.5214 1.5501 -1.3458 -2.5607 0.3962 -1.3848 -1.8641 0.3799 0.0452 2.7670 -1.3040 1.1626 1.4095 -0.5524 1.1451 2.5320
1.9251 -0.5633 4.5503 -3.3970 0.5617 0.5664 -1.0060 2.9299 3.5395 0.0779 -0.2116 -5.7693 -0.7636 -2.4140 -1.6690 1.5274 -1.0987 -0.4351 0.9507 0.4121 4.1991 -2.4146 1.5102 0.9665 -1.3976 1.5632 3.6170 1.8559 -0.0710 -2.7251 1.2051 -0.3465 1.9128 -0.5048 0.2114 0.2899 1.5552 0.1704 -3.9564 -0.3064 -1.2797 -3.7459 0.4300 -0.4615 -4.4550 0.6763 -0.3795 0.5598 0.0244 -1.5553 -2.4333 1.0885 -0.9677 -1.8516 0.5079 0.2434 2.9069 -1.2773 0.8335 1.3456 -0.7571 0.9129 2.5871
2.7009 0.7916 1.5565 -3.6993 2.0333 2.1664 -0.5530 2.8867 3.5865 2.8383 -0.2020 -4.8026 0.8835 -3.2464 -1.7404 -1.1803 -1.3037 -1.0329 1.7380 0.4084 2.5356 -3.0187 1.0133 2.8916 -0.3662 1.4975 3.8381 0.0257 0.1799 -2.7089 0.2895 -0.4347 0.8273 -2.0992 -0.0983 0.9516 0.9382 0.4785 -3.5702 1.8657 -1.6780 -3.2856 1.8692 -0.5010 -3.8602 -1.0404 -0.5682 0.2620 0.8924 -1.9948 -2.3514 -0.0653 -1.1078 -2.0110 0.5088 0.3189 1.9201 -1.8908 0.6594 2.1827 -0.6370 0.8674 2.6449
2.7638 1.5152 2.2796 -3.7247 1.5090 0.9083 -0.9874 1.5758 4.7070 2.0951 -0.0176 -5.2321 -1.3191 -2.3197 -2.9009 0.0366 -1.9254 -0.3601 1.5989 1.2354 3.0492 -3.0938 1.0217 2.0870 -0.9014 2.1902 3.4253 1.8031 -0.7580 -1.7941 0.8014 -0.3084 1.3856 -1.5654 -0.4274 0.8644 2.3090 -0.2969 -2.8881 0.4393 -1.1487 -4.0575 1.5807 -0.5072 -4.0439 -0.3075 -0.8442 0.6110 -0.1094 -1.6298 -2.8810 0.5039 -1.4413 -1.6958 0.6158 0.7280 2.2273 -1.7892 0.6699 1.8066 -0.7497 1.1794 2.5020
2.7006 1.0923 3.1369 -3.3104 1.4394 0.5245 -0.9452 3.0708 3.0298 1.5030 0.1907 -5.4002 -1.6371 -1.2779 -2.1916 0.5061 -1.9880 -0.3296 1.4208 0.7304 3.6473 -2.9889 0.7592 1.7348 -1.0741 1.7725 3.5989 2.0276 -1.2095 -2.2029 0.9602 -0.5871 1.6982 -1.2648 -0.6017 0.7570 2.3023 -0.7193 -3.3650 -0.0157 -0.5209 -3.7937 1.2300 -0.3597 -4.1607 0.0117 -1.0229 0.6935 -0.3111 -1.0686 -2.5604 0.6646 -1.3987 -1.6907 0.6209 0.3709 2.5848 -1.6522 0.4321 1.6996 -0.7482 0.8959 2.5895
2.6097 0.6859 2.8989 -3.5738 0.8644 3.2636 -0.9323 1.8747 4.4910 2.4670 -0.1507 -5.2040 -1.0215 -2.6446 -3.1776 -0.1951 -1.8079 -0.5275 1.5427 1.5712 2.5772 -3.2089 1.1939 1.9254 -0.9277 2.4257 3.1767 1.6648 -0.5840 -1.7987 0.6566 -0.1174 1.1089 -1.7318 -0.2815 0.7444 2.2927 -0.1678 -2.8447 0.7643 -1.3739 -4.1840 1.8055 -0.5872 -4.0679 -0.4883 -0.6928 0.4239 0.0763 -1.7960 -3.0567 0.4454 -1.4041 -1.8203 0.5043 0.8628 2.0190 -1.9125 0.7758 1.7355 -0.8372 1.3533 2.3172
2.8246 0.2043 2.3999 -2.9847 2.7597 0.9287 -0.5821 1.3511 4.7497 1.6810 -0.1938 -5.4316 2.1806 -1.5459 -0.9425 -0.7609 -1.8021 -0.6425 1.5928 0.2827 3.1091 -2.8202 1.8237 1.9887 -0.4374 2.0389 3.5109 -0.7789 -1.0820 -3.0620 0.3856 -0.7407 1.3060 -1.8221 0.0440 0.6889 -0.2701 -0.7018 -4.1852 1.8806 -0.8428 -3.2132 1.1067 -0.5900 -4.2373 -0.7851 -0.7815 0.4463 1.3380 -1.2571 -2.0119 0.0033 -1.3784 -1.8542 0.5437 0.2371 2.2168 -1.7024 1.0602 1.7328 -0.5931 1.1144 2.5026
2.3362 0.1605 4.0909 -3.7063 0.5397 1.3122 -1.6871 1.6423 4.3313 1.2410 -0.1096 -5.6836 -1.5505 -1.5443 -2.1534 0.7266 -1.7363 -0.3433 1.5213 1.1799 3.5207 -2.6558 1.4919 1.1739 -0.9289 2.2650 3.2999 2.0726 -1.0193 -2.3749 1.1028 -0.2686 1.6419 -1.0186 -0.1377 0.4844 2.2356 -0.6416 -3.5987 -0.1028 -0.8067 -3.9245 1.0950 -0.5300 -4.3736 0.2096 -0.6823 0.5774 -0.2771 -1.2291 -2.6215 0.7675 -1.3248 -1.7751 0.7006 0.6369 2.5574 -1.4576 0.8648 1.4350 -0.6242 1.2495 2.4238
1.9068 -0.2894 4.4456 -2.2321 3.0969 0.7381 -1.0819 1.9997 4.4569 -0.6954 -1.2843 -5.6511 1.8248 -2.8773 -1.9706 1.6597 -0.2499 -0.6702 0.5437 -0.5001 4.0894 -2.4877 1.7467 1.1131 -1.7118 0.9522 3.7256 0.3877 0.4014 -2.7556 1.0628 -0.3577 1.7426 -0.4544 0.7883 0.2401 -0.1913 0.2113 -3.8906 0.5470 -2.0359 -3.8340 -0.0917 -1.0576 -4.4272 0.6769 0.0742 0.4084 1.1434 -1.8379 -2.5998 1.0719 -0.6428 -1.9817 0.3196 -0.0208 2.8166 -1.2800 1.1422 1.3840 -0.9183 0.7408 2.6204
1.1857 -1.1918 4.7181 -1.9131 2.8228 0.0927 -0.5033 3.1075 3.5163 -0.5426 -0.5774 -5.6999 2.8974 -1.3274 -2.5234 0.9267 -1.5555 -0.3735 0.9335 0.1218 4.2289 -2.2693 1.9028 1.1198 -1.0922 1.8246 3.7112 -0.7499 -1.1728 -2.2406 0.8862 -0.6951 1.9655 -0.6925 0.2319 0.3879 -1.1338 -0.8982 -3.4380 1.1303 -0.9423 -4.1198 -0.1439 -0.8100 -4.3959 0.3301 -0.6127 0.6233 1.5439 -1.1782 -2.8180 0.6511 -1.2744 -1.8126 0.3750 0.0466 2.9714 -1.1747 1.1243 1.4237 -0.6448 1.0534 2.6629
2.5684 0.0030 2.1251 -3.3679 0.9732 3.7023 -0.4441 1.3167 4.6116 2.9028 -0.4112 -4.9068 0.9238 -3.1898 -1.6116 -1.1659 -1.2047 -1.1159 1.6633 1.1015 2.1795 -3.1288 1.5565 2.4240 -0.4879 2.1259 3.4394 0.0524 0.1235 -2.9037 0.2551 -0.0644 0.6285 -2.1447 0.1839 0.7222 0.9785 0.3532 -3.7707 1.9208 -1.7590 -3.2779 1.9229 -0.6382 -3.9558 -1.0666 -0.3261 0.0921 0.9332 -1.9998 -2.3353 -0.0375 -1.0950 -2.0925 0.4308 0.6823 1.7331 -1.9746 1.0005 1.9218 -0.7339 1.2679 2.3906
2.6606 1.4400 1.6648 -3.9262 1.3166 1.7846 -1.1008 3.1401 3.1136 2.8728 -0.2279 -4.7519 -1.4755 -1.4111 -3.2752 -0.5038 -1.8843 -0.5711 1.7207 1.0576 2.6663 -3.0712 0.6992 2.7421 -0.6502 1.9009 3.6514 1.7611 -1.2796 -1.5778 0.6000 -0.3871 1.1194 -1.8106 -0.5446 1.0911 2.5677 -0.8755 -2.4983 0.7467 -0.8189 -4.0044 2.0197 -0.6475 -3.7457 -0.6315 -0.8913 0.5385 -0.1240 -1.2169 -3.0019 0.3082 -1.4302 -1.7436 0.5843 0.5911 2.0427 -1.8488 0.4595 2.1514 -0.6991 1.0098 2.6040
2.7935 1.0117 2.4832 -3.5300 1.4984 0.9441 -0.8395 3.1429 2.9149 2.1321 -0.1084 -5.1935 -1.3286 0.1171 -1.9970 -0.0862 -2.0927 -0.4369 1.6171 0.7031 3.2252 -3.0543 0.8238 2.1057 -0.8070 1.8658 3.5430 1.6196 -2.0436 -2.2890 0.7756 -0.6883 1.4706 -1.5822 -0.6715 0.9434 2.1614 -1.6395 -3.3880 0.4642 -0.0055 -3.5806 1.5528 -0.5765 -4.0280 -0.3503 -1.1432 0.6805 -0.1376 -0.4617 -2.4232 0.4106 -1.4566 -1.6946 0.6352 0.3438 2.3278 -1.7550 0.4444 1.8591 -0.6914 0.9363 2.5331
1.9288 -0.8982 4.3971 -2.6811 2.2710 0.3794 -1.9138 2.1157 3.8495 -0.0943 -0.5349 -5.7703 2.3754 -0.0773 -1.7552 0.5036 -1.8392 -0.3574 0.7476 -0.1198 4.2307 -1.3640 2.5534 0.8426 -0.5244 2.1429 3.5335 -0.6523 -1.9684 -2.5965 0.6167 -0.9456 1.9646 -0.5054 0.3778 0.2728 -0.8418 -1.6844 -3.8407 1.0960 -0.3225 -3.7853 0.0796 -0.8390 -4.4318 0.1604 -0.7461 0.5995 1.3059 -0.6331 -2.4547 0.4633 -1.4520 -1.7951 0.4363 0.0155 2.8955 -0.7857 1.3820 1.2780 -0.3508 1.2023 2.5437
2.0687 -0.2867 4.3639 -1.8584 2.7425 -0.0082 -0.2831 2.8218 3.6817 -0.2380 -0.6365 -5.7390 2.0873 0.4418 -1.7637 0.7952 -1.7777 -0.3571 0.6587 -0.1201 4.2502 -2.2856 1.8314 1.0001 -1.1966 1.7320 3.6104 -0.3263 -2.1987 -2.5777 0.7122 -0.9131 1.9738 -0.7855 0.0617 0.3323 -0.6104 -1.9673 -3.8147 0.8827 -0.1291 -3.7714 0.0344 -0.8973 -4.4083 0.1858 -0.8277 0.6207 1.1951 -0.3803 -2.4491 0.6218 -1.4040 -1.7874 0.3029 -0.0445 2.9211 -1.2314 1.0108 1.3361 -0.7296 0.9409 2.5862
0.9963 -1.2921 4.7287 -3.0615 1.6954 0.4290 -0.2290 3.1964 3.2870 -0.2815 -0.6435 -5.7447 2.2027 0.4201 -1.8588 0.8661 -1.7109 -0.3682 0.9008 0.0313 4.2102 -1.8270 2.2103 0.9127 -0.8718 1.9588 3.5778 -0.3394 -2.1335 -2.5480 0.8396 -0.8267 1.9603 -0.5557 0.2574 0.3003 -0.6499 -1.9163 -3.7812 0.9173 -0.1403 -3.8212 0.0203 -0.8862 -4.4164 0.3251 -0.7155 0.6048 1.2594 -0.3780 -2.5031 0.6644 -1.3632 -1.8026 0.3868 -0.0071 2.9323 -1.0358 1.1615 1.3267 -0.5273 1.0819 2.5745
1.1727 -1.2937 4.5337 -2.9607 2.3469 1.2349 -0.6178 2.9410 3.8621 -0.7996 -1.3484 -5.6114 3.0185 -0.6979 -2.8714 1.4297 -1.0407 -0.4636 0.0782 -0.4450 4.2119 -1.5986 2.5909 0.8966 -1.3299 1.7295 3.6363 -0.4950 -1.4008 -2.1025 0.7172 -0.7232 1.8897 -0.1226 0.8344 0.2320 -1.0539 -1.4454 -3.2627 1.0584 -1.0276 -4.2437 -0.2259 -1.2656 -4.3541 0.6181 -0.2561 0.5145 1.6523 -0.9464 -2.9936 0.9250 -1.1007 -1.8675 0.1096 -0.0559 2.8935 -0.8715 1.4926 1.2897 -0.7045 1.1119 2.5757
2.5028 -0.0586 3.8705 -1.8746 2.7405 -0.0461 -1.6256 1.6029 4.3862 0.3056 -0.5361 -5.7798 1.6739 0.5043 -1.3756 0.3034 -1.9421 -0.3568 1.0946 0.1022 4.0034 -2.2509 1.9794 1.0977 -0.6544 2.1079 3.4734 -0.2186 -2.3079 -2.7789 0.6668 -0.8946 1.8716 -1.0846 -0.0144 0.4539 -0.2436 -2.0390 -4.0395 0.9419 -0.0398 -3.5991 0.3486 -0.8547 -4.4346 -0.1183 -0.9296 0.6522 1.0051 -0.3472 -2.2521 0.4016 -1.4502 -1.7620 0.5427 0.1291 2.7406 -1.2247 1.1052 1.3701 -0.4917 1.1425 2.5049
2.3530 0.9572 3.0973 -3.2989 1.9890 2.8091 -0.1609 3.0218 2.7711 1.9784 -0.4951 -5.5274 0.5191 0.8954 -1.2695 -0.4104 -1.9892 -0.6770 1.3719 -0.0180 3.4324 -2.8446 1.4976 1.5544 -0.6025 1.8466 3.4428 0.4223 -2.3562 -2.9747 0.4918 -1.0078 1.4547 -1.7276 -0.3981 0.6928 0.9672 -2.0962 -4.1125 1.2575 0.1378 -3.4091 1.3913 -0.7987 -4.3122 -0.6098 -1.1263 0.5146 0.6613 -0.1380 -2.1899 0.2320 -1.3834 -1.8859 0.4664 -0.0444 2.3954 -1.7670 0.6567 1.6959 -0.6906 0.8493 2.4976
2.6252 1.1780 1.1019 -3.7525 1.9163 2.6822 -0.1500 0.2485 4.6426 3.2747 -0.9631 -4.4854 0.4955 -2.7589 -1.0955 -1.3964 -0.5528 -1.4131 1.6927 0.9200 2.1486 -3.0382 0.7289 3.0063 -0.3747 1.3975 3.8315 0.1933 0.2050 -3.2300 0.1632 0.2939 0.4055 -2.2027 0.1438 0.8335 1.2683 0.1641 -3.9414 1.8912 -1.8300 -2.8283 2.1249 -0.8981 -3.7187 -1.1848 -0.0132 -0.0331 0.7377 -1.7889 -2.0659 -0.1563 -0.7897 -2.2098 0.4235 0.7868 1.6292 -1.9491 0.6737 2.1685 -0.6855 0.9382 2.5714
1.6615 -0.6405 4.6117 -1.5718 3.2698 0.3671 -1.0510 2.7329 3.8990 -0.9364 -1.6273 -5.5046 2.7552 -0.0780 -2.9700 1.4827 -0.9081 -0.4906 0.2908 -0.5222 4.2410 -2.1043 2.1299 1.0351 -1.5254 1.4014 3.7190 -0.3944 -1.6960 -2.0234 0.8506 -0.6850 1.9044 -0.3296 0.6729 0.2784 -0.9982 -1.8562 -3.1510 0.8600 -0.8705 -4.2343 -0.3217 -1.4341 -4.2798 0.6049 -0.2640 0.5322 1.4961 -0.6734 -3.0198 0.9145 -1.0484 -1.8627 0.2061 -0.0953 2.9330 -1.0709 1.2817 1.3707 -0.8185 0.9104 2.6445
1.9242 -1.5565 2.9793 -3.6408 1.5249 1.8245 -1.0049 1.4736 4.6644 0.0671 -2.6508 -5.1185 2.0713 -1.6972 -0.9507 1.2128 1.1413 -1.1535 0.6209 -1.0329 3.2106 -2.4889 2.3619 1.8149 -1.5099 0.4836 3.7753 0.3142 0.4078 -3.3842 0.9362 0.1219 1.1090 -0.6887 1.7506 0.3654 0.0348 -0.4222 -4.3306 1.0208 -2.1538 -3.0574 0.3922 -1.7415 -4.1287 0.4208 1.0339 0.1056 1.3506 -1.2580 -2.0570 0.9728 0.0359 -2.1269 0.2923 -0.0811 2.2734 -1.3954 1.5513 1.6250 -0.9024 0.7070 2.5601
2.7274 0.0286 1.9205 -3.8977 1.1885 2.5440 -0.7921 1.5723 4.6112 2.8690 -2.2226 -4.4907 -0.4651 -2.0404 -1.1416 -0.8185 0.8803 -1.6369 1.7386 0.8280 2.5664 -3.0280 0.0623 2.6100 -0.5258 0.3169 3.9907 0.9533 0.5117 -3.3640 0.4663 0.9972 0.5434 -1.9152 0.5689 0.5477 1.8157 -0.1522 -4.0550 1.2539 -2.0919 -2.8221 1.9506 -1.4944 -3.7562 -0.8021 0.8551 -0.1487 0.3055 -1.3881 -2.1013 0.1209 -0.0668 -2.3027 0.5621 0.7143 1.8583 -1.8522 0.4178 1.9922 -0.6666 0.5145 2.6350
1.6365 -1.5615 3.5754 -2.3420 3.5446 1.1422 -2.1432 -0.2602 4.0159 -0.6438 -2.4741 -5.1006 2.7773 -1.8111 -1.8965 1.4973 0.6751 -0.9801 0.8928 -0.3648 3.7813 -2.4867 2.1831 1.5293 -1.4471 0.9711 3.8557 -0.1986 0.1384 -2.7781 1.1517 0.1290 1.4296 -0.5256 1.4603 0.2884 -0.7353 -0.5507 -3.7258 1.0247 -2.1171 -3.5204 -0.0851 -1.7147 -4.0878 0.6243 0.7569 0.2293 1.5912 -1.3849 -2.4897 1.0110 -0.2526 -2.0426 0.4519 0.1517 2.5828 -1.2525 1.5676 1.5505 -0.7990 0.9139 2.6411
1.1456 -2.0449 2.8800 -3.5335 1.8315 2.0049 -0.7533 1.6658 4.6825 -0.1762 -2.9945 -4.8587 3.0936 -1.1149 -1.9853 1.2304 1.0212 -1.1832 0.6601 -0.7926 3.3471 -2.3559 2.6031 1.7777 -1.4487 0.7811 3.8115 -0.3436 -0.1410 -2.7938 0.9035 0.0898 1.1182 -0.6082 1.8140 0.3313 -0.7146 -1.0391 -3.6410 1.4144 -2.0477 -3.4417 0.2094 -2.0174 -3.9557 0.4305 0.9899 0.0798 1.8070 -1.0891 -2.5187 0.9633 -0.1116 -2.1247 0.2376 -0.0280 2.2848 -1.3085 1.7268 1.6099 -0.8529 0.8976 2.5750
1.5613 -1.8049 3.0044 -3.4474 1.8325 1.7834 -1.9951 -0.4087 3.9415 -0.2027 -2.5459 -5.0620 1.9999 -1.8290 -0.9386 1.4350 1.0791 -1.1059 0.7988 -0.6803 3.4255 -2.2620 2.6216 1.7261 -1.3680 0.8657 3.8158 0.3823 0.4566 -3.3065 1.0829 0.2074 1.1999 -0.4657 1.8592 0.3400 -0.0184 -0.3324 -4.2447 0.8711 -2.1596 -3.0347 0.2361 -1.6805 -4.0751 0.6102 1.0746 0.1369 1.3094 -1.3123 -2.0318 1.0655 0.0139 -2.0848 0.3990 0.0812 2.3518 -1.2081 1.7487 1.5915 -0.7842 0.9132 2.5674
2.7713 0.4416 2.0553 -3.7361 -0.6125 2.5367 -0.9677 2.2357 4.4164 3.1132 -2.6406 -3.9270 -1.4221 -1.3045 -3.6011 -0.7663 0.7274 -1.6194 1.6904 1.1878 2.6089 -3.0772 0.6318 2.7393 -0.5731 0.9166 4.0517 1.6251 -0.1287 -1.9564 0.4542 0.9566 0.5658 -1.9397 0.6263 0.5957 2.5428 -0.8975 -2.4327 0.8914 -1.9678 -3.7400 2.1400 -1.8303 -3.3679 -0.8015 0.7105 -0.1231 -0.0983 -1.1670 -3.1912 0.1895 -0.2347 -2.2606 0.5391 0.9039 1.9077 -1.8783 0.6225 2.0581 -0.6967 0.8232 2.6838
2.1354 -0.7862 3.4500 -2.5646 3.4455 1.8571 -1.0380 1.5466 4.6572 0.0028 -3.2829 -4.7890 3.1141 -0.4622 -2.5952 0.9486 0.9615 -1.2285 0.7251 -0.9238 3.3036 -2.7566 2.0345 1.8248 -1.5155 0.4712 3.8551 -0.5429 -0.6458 -2.5150 0.8205 0.0143 1.0931 -0.9244 1.5168 0.3345 -0.8082 -1.6141 -3.3233 1.5099 -1.8807 -3.6989 0.2698 -2.2386 -3.9203 0.2081 0.8366 0.0637 1.7943 -0.8509 -2.8148 0.8098 -0.1982 -2.1617 0.2897 -0.0504 2.3310 -1.5265 1.4352 1.6613 -0.9514 0.6714 2.6154
2.2607 -0.6034 3.5351 -2.5200 3.3833 1.9481 -1.9748 -0.8394 3.8880 -0.0076 -2.6862 -5.1161 2.0988 -1.6785 -1.0055 1.1387 1.1184 -1.1692 0.8802 -0.8399 3.2829 -2.7096 1.9864 1.7470 -1.4482 0.4839 3.8382 0.1791 0.3670 -3.3655 1.0140 0.2316 1.1548 -0.8211 1.5682 0.3261 -0.0936 -0.4646 -4.3123 0.9969 -2.1672 -3.0841 0.3184 -1.7712 -4.1314 0.3747 0.9947 0.1030 1.3248 -1.2668 -2.0866 0.8970 0.0115 -2.1367 0.4415 0.0890 2.3639 -1.4621 1.4198 1.6285 -0.8878 0.6633 2.5922
1.4467 -1.5115 3.9328 -3.3087 1.6683 0.5672 -1.0479 2.4124 4.3430 -0.5184 -2.9772 -4.8711 1.7964 0.9580 -3.6322 1.6495 0.2543 -0.8182 0.7438 -0.2742 3.9764 -2.2951 2.3177 1.3257 -1.5085 1.1810 3.7952 0.4235 -1.8207 -1.6750 1.1471 -0.0254 1.6038 -0.3850 1.2855 0.2513 -0.1016 -2.5843 -2.5725 0.6102 -1.0518 -4.2264 0.0166 -2.1683 -3.8848 0.7198 0.5149 0.3206 1.1581 -0.2242 -3.2614 1.0847 -0.5368 -1.9512 0.3891 0.1353 2.7098 -1.2159 1.4673 1.4386 -0.8045 0.9798 2.6285
1.9816 -1.0131 3.8059 -3.5597 0.5354 1.4863 -1.5812 2.1998 4.1635 0.2735 -3.0536 -4.9249 -0.5916 1.0906 -2.8262 1.6062 0.6817 -0.9557 1.0154 0.0294 3.8748 -2.6721 1.6162 1.2176 -1.5329 0.8357 3.7589 1.9353 -1.4958 -2.2251 1.2790 0.3209 1.4979 -0.5691 1.1675 0.1908 1.6596 -2.3815 -3.1234 -0.1448 -1.0350 -3.8520 0.5823 -2.1194 -3.9515 0.7000 0.7192 0.2298 0.1597 -0.0792 -2.9031 1.1713 -0.2571 -2.0299 0.5248 0.2918 2.6170 -1.3939 1.1410 1.3811 -0.8436 0.8055 2.5683
2.6949 0.9523 1.9490 -3.6317 -0.6459 2.6802 -0.1905 0.0557 4.5306 3.2354 -2.5157 -3.8007 -1.3974 -1.5664 -3.4822 -0.8997 0.6523 -1.6661 1.5653 1.6587 2.4562 -3.1325 0.6871 2.7291 -0.6424 1.2824 3.9668 1.5535 -0.0066 -1.9903 0.3237 1.1609 0.4659 -2.0270 0.6152 0.5752 2.5295 -0.7250 -2.4276 0.9639 -2.0323 -3.6198 2.1996 -1.7570 -3.2837 -0.9123 0.7452 -0.1730 -0.0857 -1.2838 -3.1099 0.1301 -0.2644 -2.2545 0.4337 1.2207 1.8044 -1.9444 0.7303 2.0317 -0.7661 1.0364 2.6186
2.5745 -0.4436 2.0155 -3.2890 2.4950 2.8673 -0.6866 1.9635 4.5175 2.1090 -3.5829 -3.9180 1.8539 1.0892 -3.1533 -0.6311 0.7676 -1.6795 1.5739 0.2940 2.7131 -3.1660 1.1311 2.4745 -0.7849 0.6396 3.9984 -0.3361 -1.6966 -2.2192 0.4840 0.5206 0.5768 -1.8895 0.9546 0.4551 0.2682 -2.7246 -2.7086 1.9645 -1.2922 -3.5299 1.4528 -2.4893 -3.3814 -0.7316 0.7187 -0.1908 1.3225 -0.1890 -2.9929 0.1725 -0.3229 -2.3028 0.4552 0.4408 1.9230 -1.9200 0.9827 1.9115 -0.7960 0.7436 2.6239
2.6249 0.9036 3.5056 -3.4517 2.5058 1.3757 -1.6097 -0.6307 4.1983 0.9591 -3.7325 -4.2459 -0.0541 0.8849 -4.0565 0.8288 1.0506 -1.2943 1.3705 0.2298 3.5114 -3.0035 1.2339 1.8288 -1.2420 0.7261 3.9723 1.3216 -1.4444 -1.5857 1.0764 0.6439 1.1572 -1.1284 1.1570 0.2778 1.3557 -2.5662 -2.2220 0.4668 -1.4652 -4.1153 0.9156 -2.5479 -3.5317 0.1800 0.9251 0.0449 0.4129 -0.2660 -3.4252 0.8056 -0.1827 -2.1377 0.6219 0.6348 2.4272 -1.6394 1.1282 1.6484 -0.8111 0.8119 2.6668
2.6501 1.4330 1.5679 -3.7081 1.6372 3.0974 -0.2263 0.1488 4.5914 3.2389 -2.9099 -3.5903 -0.4130 -0.0095 -4.4451 -1.0455 0.1722 -1.6183 1.4843 1.7399 2.3250 -3.1004 0.3786 2.8251 -0.6253 1.3440 3.9295 0.9549 -1.4218 -1.3624 0.2233 0.9996 0.4041 -2.0690 0.2809 0.6612 1.9573 -2.1182 -1.7726 1.4353 -1.4850 -3.9861 2.1798 -2.1441 -3.1342 -0.9983 0.4350 -0.1448 0.3779 -0.7078 -3.5351 0.0801 -0.6144 -2.2207 0.3667 1.2022 1.7289 -1.9719 0.6211 2.0775 -0.7911 1.0183 2.6017
1.6131 -1.7408 2.1375 -3.5137 1.7706 2.6635 -1.6901 -0.3483 4.1066 0.8739 -3.5124 -4.2720 2.7869 -0.1748 -1.5175 0.2861 1.3865 -1.5941 1.1975 -0.5577 2.8152 -2.4083 2.6036 2.3246 -0.8533 0.7928 3.9374 -0.4992 -0.4772 -3.1140 0.7136 0.4230 0.6827 -1.1145 1.9714 0.4072 -0.4102 -1.5972 -3.7478 1.7843 -1.8628 -2.9071 0.7730 -2.2989 -3.6151 -0.1120 1.2686 -0.1566 1.6995 -0.6484 -2.2486 0.5656 0.0840 -2.2759 0.4098 0.1896 1.9697 -1.4203 1.7875 1.8248 -0.6819 0.9408 2.5795
2.4030 -0.7608 1.9870 -2.8741 2.9445 2.9682 -1.1756 -0.6467 4.2697 1.6593 -3.5109 -4.1409 2.4651 0.4550 -1.7001 -0.4225 1.0921 -1.6972 1.5330 0.1196 2.6960 -3.0353 1.6398 2.4210 -0.7987 0.6895 3.9571 -0.5924 -1.0029 -3.1016 0.5302 0.6238 0.5759 -1.7581 1.3532 0.4124 -0.1582 -2.0632 -3.6945 2.0155 -1.5776 -2.8996 1.1863 -2.3514 -3.5530 -0.6221 0.9970 -0.2178 1.5626 -0.4059 -2.3208 0.2494 -0.0911 -2.3187 0.4522 0.4333 1.9028 -1.8283 1.2797 1.8702 -0.7914 0.7830 2.5839

>  <OB_ATOM_TYPES> (1dg5A1)
C.3 C.3 C.3 N.pl3 N.pl3 C.3 O.3 O.3 O.3 C.ar C.ar C.ar N.ar N.ar C.ar C.ar C.ar C.ar C.ar C.ar C.ar

>  <ENSEMBLE_RMSD> (1dg5A1)
0.000 0.774 0.862 0.940 0.948 0.950 1.079 1.080 1.102 1.110 1.169 1.196 1.224 1.252 1.256 1.305 1.332 1.353 1.423 1.484 1.569 1.586 1.591 1.611 1.617 1.629 1.693 1.744 1.792 1.803 1.864 1.915 1.929 1.932 1.959 1.960 1.985 2.037 2.065 2.184 2.232 2.245 2.258 2.297

$$$$
