
 OpenBabel03071213D

 11 11  0  0  0  0  0  0  0  0999 V2000
   40.1670   35.1840    1.7410 O   0  0  0  0  0
   42.7400   35.7000   -0.2380 O   0  0  0  0  0
   41.9600   34.9020    5.4390 O   0  0  0  0  0
   41.5840   39.1850    1.6680 O   0  0  0  0  0
   42.5810   36.6480    3.1030 N   0  0  0  0  0
   41.3700   34.9470    4.2700 C   0  0  0  0  0
   42.8110   38.5830    1.5830 C   0  0  0  0  0
   41.5840   35.1020    1.7100 C   0  0  0  0  0
   42.1710   36.2170    0.8700 C   0  0  0  0  0
   42.2360   35.2900    3.0730 C   0  0  0  0  0
   42.9400   37.1010    1.7850 C   0  0  0  0  0
  1  8  1  0  0  0
  2  9  1  0  0  0
  3  6  2  0  0  0
  4  7  2  0  0  0
  5 10  1  0  0  0
  5 11  1  0  0  0
  6 10  1  0  0  0
  7 11  1  0  0  0
  8  9  1  0  0  0
  8 10  1  0  0  0
  9 11  1  0  0  0
M  END
>  <MOLID> (1didB1)
1didB1

>  <SMILES_CANONICAL> (1didB1)
O=C[C@@H]1N[C@@H]([C@H]([C@@H]1O)O)C=O	

>  <FINGERPRINT> (1didB1)
0000000000000101000000000000000000000001000000000000000000000000000000000001000000000000000000000000000000000000000001000000000000000000000000000000000010000000000000000000000000000000000100000000000000000000000000000000000000000000000000000000000000000000000000000000000000000000000000000000000000000000000000001000000000000000001000000010000000000000010000000000000100110000000000000001011000000000100000000001101000000000000000000000000000000010100000000010000000000000000000000000000000001000000000000000100000010000000000000000000000000000000000000000000000000000000000000000000011000000001000000000000000000000000000000000001000000001000000000000000000000000000000000001000000000000000000100000000000000111000000000000000010000000000000000000000000000000000100000000000000000000000000000000000100000000000000000000000000000000000000000000000000000000000000000000000000000000000000000000000000000000000000000000000000000000000000000000010000000000000000000000000000000000010000000000000000000000000000000000001000000000

>  <MACCS166> (1didB1)
000000000000000000000000000000000000000000000000000011000000000000000001000000000010000010000011100000000000000000000001100000100010000110110110010001110101111010011000

>  <OB_MW> (1didB1)
159.053

>  <OB_logP> (1didB1)
-2.2248

>  <OB_PSA> (1didB1)
86.63

>  <OB_MR> (1didB1)
38.2823

>  <OB_ATOMIC_CHARGES> (1didB1)
-0.2183617922 -0.2183617922 -0.2866796618 -0.2866796618 -0.1999023676 0.2271179082 0.2271179082 0.2072866674 0.2072866674 0.1705880622 0.1705880622

>  <MCT_HBD> (1didB1)
3

>  <MCT_HBA> (1didB1)
5

>  <ENSEMBLE_TOTAL> (1didB1)
3

>  <ENSEMBLE_COORDS> (1didB1)
-1.8461 -1.0759 -0.5321 0.7269 -0.5599 -2.5111 -0.0531 -1.3579 3.1659 -0.4291 2.9251 -0.6051 0.5679 0.3881 0.8299 -0.6431 -1.3129 1.9969 0.7979 2.3231 -0.6901 -0.4291 -1.1579 -0.5631 0.1579 -0.0429 -1.4031 0.2229 -0.9699 0.7999 0.9269 0.8411 -0.4881
-1.6288 -1.8280 -0.4675 0.7849 -0.1497 -2.3164 -0.2774 -1.1213 3.0796 0.4817 3.3123 -0.4517 0.8182 0.3179 0.6571 -0.6008 -1.1232 1.9011 0.6908 2.1678 -0.8272 -0.2888 -1.3864 -0.6040 -0.2902 -0.0883 -1.3884 0.3547 -1.0676 0.7431 -0.0442 0.9666 -0.3258
-1.3290 -1.9500 -0.4944 -0.0152 -0.2025 -2.6223 -0.9320 -1.0854 2.8588 -0.2277 2.7320 -0.0463 1.2363 0.2773 0.6771 -0.6848 -0.5304 1.7981 0.7320 2.2231 -0.6050 -0.0730 -1.3047 -0.5102 -0.1660 0.0136 -1.2310 0.4248 -0.9303 0.8698 1.0346 0.7573 -0.6946

>  <OB_ATOM_TYPES> (1didB1)
O.3 O.3 O.2 O.2 N.3 C.2 C.2 C.3 C.3 C.3 C.3

>  <ENSEMBLE_RMSD> (1didB1)
0.000 0.559 0.647

$$$$
