
 OpenBabel03071213D

 17 18  0  0  0  0  0  0  0  0999 V2000
   16.4740    9.8040   10.5030 C   0  0  0  0  0
   15.5410    4.6640    3.6740 N   0  0  0  0  0
   17.7780   10.4690    8.6260 O   0  0  0  0  0
   19.6900    8.5670    9.3240 O   0  0  0  0  0
   18.6970    8.0220    4.5980 O   0  0  0  0  0
   15.8600    5.2770    5.9550 N   0  0  0  0  0
   16.7910    6.6550    8.9300 C   0  0  0  0  0
   16.2020    5.8700    8.0840 N   0  0  0  0  0
   17.1000    6.3550    4.2330 N   0  0  0  0  0
   18.0840    7.8010    7.3660 N   0  0  0  0  0
   17.8780    9.9260    9.9630 C   0  0  0  0  0
   18.3870    8.4910    9.7260 C   0  0  0  0  0
   16.1890    5.4260    4.5780 C   0  0  0  0  0
   17.8210    7.2100    5.0500 C   0  0  0  0  0
   17.6990    7.6340    8.6680 C   0  0  0  0  0
   16.5160    6.1130    6.8150 C   0  0  0  0  0
   17.4960    6.9910    6.4090 C   0  0  0  0  0
  1 11  1  0  0  0
  2 13  1  0  0  0
  3 11  1  0  0  0
  4 12  1  0  0  0
  5 14  2  0  0  0
  6 13  1  0  0  0
  6 16  1  0  0  0
  7  8  2  0  0  0
  7 15  1  0  0  0
  8 16  1  0  0  0
  9 13  2  0  0  0
  9 14  1  0  0  0
 10 15  2  0  0  0
 10 17  1  0  0  0
 11 12  1  0  0  0
 12 15  1  0  0  0
 14 17  1  0  0  0
 16 17  2  0  0  0
M  END
>  <MOLID> (1dr1A1)
1dr1A1

>  <SMILES_CANONICAL> (1dr1A1)
C[C@@H]([C@@H](c1cnc2c(n1)c(=O)nc([nH]2)N)O)O	

>  <FINGERPRINT> (1dr1A1)
0000000000000000000000000000101000000000100000000001100000000000000000000001100000010100000000000001100010000000000001100001000000000000000000000001000011000000000000000000000011000000000000000000000000000000101100000000010000000000000000000000100000000000000101100100000000001011000000000000000000001000000000000110000000100000000000001000000000000100010000000000000000010000000000000000000000000000100010000000000000000000010000000000100000000000000000001000111000000000000000000000000000001100000000000000110000011000000000001000000000000000000001101000000011000000000000000000000001000000000001000000100001000000001000000000000000000001000000000000000000000000100000000000010000000000100000000100000000100101100000000000100001000100000000000011000000000000000101000000000000000100000000000000000010000000000000000000000000000000011010000000000010000000000000000101000000000100000000000000010000000000000000000100000000001100000000001100011000011000000000001100000000000000000000000000000010100000000000000000001010000000

>  <MACCS166> (1dr1A1)
000000000000000000001000110000000000010000101000000001000000000010000001000111110001000000010010111000001101010010001011100010100010101110111110110010110101111110111000

>  <OB_MW> (1dr1A1)
237.086

>  <OB_logP> (1dr1A1)
-0.7093

>  <OB_PSA> (1dr1A1)
138.01

>  <OB_MR> (1dr1A1)
59.2617

>  <OB_ATOMIC_CHARGES> (1dr1A1)
0.0386749416 -0.0859081447 -0.2199906307 -0.2138402334 -0.2633347404 -0.1902237198 0.1178559613 -0.2222372418 -0.1709445516 -0.2376337358 0.1880444125 0.2231506838 0.2606703349 0.3023358287 0.111064451 0.1878262861 0.1744900983

>  <MCT_HBD> (1dr1A1)
4

>  <MCT_HBA> (1dr1A1)
8

>  <ENSEMBLE_TOTAL> (1dr1A1)
2

>  <ENSEMBLE_COORDS> (1dr1A1)
-0.8321 2.4349 3.2970 -1.7651 -2.7051 -3.5320 0.4719 3.0999 1.4200 2.3839 1.1979 2.1180 1.3909 0.6529 -2.6080 -1.4461 -2.0921 -1.2510 -0.5151 -0.7141 1.7240 -1.1041 -1.4991 0.8780 -0.2061 -1.0141 -2.9730 0.7779 0.4319 0.1600 0.5719 2.5569 2.7570 1.0809 1.1219 2.5200 -1.1171 -1.9431 -2.6280 0.5149 -0.1591 -2.1560 0.3929 0.2649 1.4620 -0.7901 -1.2561 -0.3910 0.1899 -0.3781 -0.7970
1.2385 3.4529 1.4206 -0.9575 -3.0776 -3.5833 2.4424 1.5522 2.2102 -0.1320 0.9989 3.7734 -0.1041 1.3600 -2.5157 -0.6867 -2.4225 -1.3916 -0.1813 -0.9313 1.8122 -0.4271 -1.8580 0.9442 -0.5329 -0.8069 -3.1243 -0.1310 0.8407 0.1515 1.3066 2.3589 2.4568 0.0324 1.5446 2.4854 -0.7148 -2.0319 -2.7153 -0.3022 0.1898 -2.1970 -0.0765 0.5037 1.3982 -0.4705 -1.4850 -0.3864 -0.3032 -0.1887 -0.7390

>  <OB_ATOM_TYPES> (1dr1A1)
C.3 N.pl3 O.3 O.3 O.2 N.ar C.ar N.ar N.ar N.ar C.3 C.3 C.ar C.ar C.ar C.ar C.ar

>  <ENSEMBLE_RMSD> (1dr1A1)
0.000 1.428

$$$$
