
 OpenBabel03071213D

  9  9  0  0  0  0  0  0  0  0999 V2000
   31.3620   20.3580   26.5130 N   0  0  0  0  0
   33.6360   20.7250   26.2460 N   0  0  0  0  0
   32.6760   17.1500   22.7270 C   0  0  0  0  0
   31.4520   17.4250   23.3670 C   0  0  0  0  0
   33.8440   17.8070   23.1300 C   0  0  0  0  0
   31.4000   18.3820   24.3930 C   0  0  0  0  0
   33.8040   18.7680   24.1480 C   0  0  0  0  0
   32.5260   20.0430   25.8540 C   0  0  0  0  0
   32.5670   19.0430   24.7750 C   0  0  0  0  0
  1  8  1  0  0  0
  2  8  2  0  0  0
  3  4  1  0  0  0
  3  5  2  0  0  0
  4  6  2  0  0  0
  5  7  1  0  0  0
  6  9  1  0  0  0
  7  9  2  0  0  0
  8  9  1  0  0  0
M  END
>  <MOLID> (1dwbB1)
1dwbB1

>  <SMILES_CANONICAL> (1dwbB1)
NC(=N)c1ccccc1	

>  <FINGERPRINT> (1dwbB1)
0000000000000000000000000000000000000000000000000000000000000000000000000000000000000001000000000000000000000001000001100000000000000000000000000000000000000000000000000000000000000000000000000000000000000000000000000000000000000000000000000001000000000000000000000000000000000001000000000000000000000000000010000100001100000000000000000000000000000000010000000000000010000000000000000000000000000000000010000000000000000000000000000000000000000000000000000000000000000000000000000000000000001000000000000000000000000000000000000000000000000000000000100000000000000000000000000000000000000000000000000000000000000000000000000000000000000000000000000000000000000000000000000000100000000000100000000000000000000000000000000000000000000000000000000100000000000000000000000000000000000000000000000000000010000000000000000000000000000000010000000000000000000000000000000000000000000000000000000000000000000000000000000000000000001000000000000000011000000000000000000100000000000100000000000000000000000000000000000000000000000000

>  <MACCS166> (1dwbB1)
000000000000000000000000000000000000010000100000010000000000000000000000000111000001000000000000001000000000000000000010000000000010000000000100000000100001010010101000

>  <OB_MW> (1dwbB1)
120.069

>  <OB_logP> (1dwbB1)
1.7707

>  <OB_PSA> (1dwbB1)
49.87

>  <OB_MR> (1dwbB1)
37.7061

>  <OB_ATOMIC_CHARGES> (1dwbB1)
0.2047061673 0.2047061673 6.3879e-06 0.0002552996 0.0002552996 0.0079924056 0.0079924056 0.4766083988 0.0974774682

>  <MCT_HBD> (1dwbB1)
2

>  <MCT_HBA> (1dwbB1)
2

>  <ENSEMBLE_TOTAL> (1dwbB1)
2

>  <ENSEMBLE_COORDS> (1dwbB1)
-1.2232 1.5023 1.9404 1.0508 1.8693 1.6734 0.0908 -1.7057 -1.8456 -1.1332 -1.4307 -1.2056 1.2588 -1.0487 -1.4426 -1.1852 -0.4737 -0.1796 1.2188 -0.0877 -0.4246 -0.0592 1.1873 1.2814 -0.0182 0.1873 0.2024
-0.5336 2.4664 1.0371 0.3711 0.8460 2.4829 0.1213 -1.6702 -1.8512 -0.9108 -1.7843 -0.8352 1.0164 -0.6670 -1.7979 -0.9755 -0.8856 0.1638 0.9564 0.3039 -0.7175 -0.0438 1.2021 1.2993 -0.0015 0.1887 0.2186

>  <OB_ATOM_TYPES> (1dwbB1)
N.pl3 N.pl3 C.ar C.ar C.ar C.ar C.ar C.2 C.ar

>  <ENSEMBLE_RMSD> (1dwbB1)
0.000 0.794

$$$$
