
 OpenBabel03071213D

  9  8  0  0  0  0  0  0  0  0999 V2000
   44.9140   -9.2730   22.8200 O   0  0  0  0  0
   47.2580   -9.1050   22.0110 O   0  0  0  0  0
   47.8520   -7.5950   26.6780 O   0  0  0  0  0
   48.5710   -7.2910   24.0850 O   0  0  0  0  0
   45.4190   -7.6720   20.9800 O   0  0  0  0  0
   46.2750   -7.0040   23.4620 C   0  0  0  0  0
   46.9760   -7.7640   25.6490 N   0  0  0  0  0
   47.3350   -7.3610   24.4420 C   0  0  0  0  0
   45.9560   -8.2940   22.3050 P   0  0  0  0  0
  1  9  1  0  0  0
  2  9  1  0  0  0
  3  7  2  0  0  0
  4  8  2  0  0  0
  5  9  2  0  0  0
  6  8  1  0  0  0
  6  9  1  0  0  0
  7  8  1  0  0  0
M  END
>  <MOLID> (1ebgB1)
1ebgB1

>  <SMILES_CANONICAL> (1ebgB1)
O=NC(=O)CP(=O)(O)O	

>  <FINGERPRINT> (1ebgB1)
0000000000000000000000000000000000000000000000000000001000000000000000000000000000000000000000000000000000000000000001000000000000000000000000000000000000000000000000000000000000000000000000000000000000000000000000000000000000000000000000000000000000000000000001000000000000000000000000000000000000000000000000000000000000000000000000000000000000000000010000000000000000000000000000000000000000000001100000000000000000000000000000100000000000000000000000000000000000000000010000000000000000000000000000000000000000000000000000000000000000101000000000000000000000000000000000100000000000000000000000000001000000000000000000000000000000001000000000000000000000000000000000000000010100010000000001100000000000000000100000000000000000000000000000000010000000000000000000000000000000000000000000000000000000000000000000000000000000000000000000000000000000000100000000000000000000000001010000000000000000000000000010000000000000000000000010000000010000000000000000000010000000000000000000000000000000000000000000001000000000000001

>  <MACCS166> (1ebgB1)
000000000000000000000000000010000000000000100001000000000000001000000011000000000000000010010100100001010100011100001010000100000111000101110100010100001111011010010000

>  <OB_MW> (1ebgB1)
152.983

>  <OB_logP> (1ebgB1)
-0.5429

>  <OB_PSA> (1ebgB1)
113.84

>  <OB_MR> (1ebgB1)
27.6531

>  <OB_ATOMIC_CHARGES> (1ebgB1)
-0.3567876255 -0.3567876255 -0.1531163744 -0.269272498 -0.4596006781 0.1490166943 0.0389609906 0.2910485207 0.1265385959

>  <MCT_HBD> (1ebgB1)
2

>  <MCT_HBA> (1ebgB1)
6

>  <ENSEMBLE_TOTAL> (1ebgB1)
2

>  <ENSEMBLE_COORDS> (1ebgB1)
-1.8144 -1.3442 -0.7836 0.5296 -1.1762 -1.5926 1.1236 0.3338 3.0744 1.8426 0.6378 0.4814 -1.3094 0.2568 -2.6236 -0.4534 0.9248 -0.1416 0.2476 0.1648 2.0454 0.6066 0.5678 0.8384 -0.7724 -0.3652 -1.2986
-2.2282 -0.9048 -1.7483 0.0569 -1.9156 -1.0621 1.6722 -0.2211 2.4822 1.1066 1.6300 0.2832 -0.1119 0.2739 -2.1866 -0.8780 0.2768 0.3443 0.7663 0.5551 2.1887 0.3834 0.8530 0.8920 -0.7673 -0.5474 -1.1933

>  <OB_ATOM_TYPES> (1ebgB1)
O.3 O.3 O.2 O.2 O.2 C.3 N.am C.2 P.3

>  <ENSEMBLE_RMSD> (1ebgB1)
0.000 0.940

$$$$
