
 OpenBabel03071213D

 29 29  0  0  0  0  0  0  0  0999 V2000
   41.0330   19.3510   39.2860 C   0  0  0  0  0
   42.0020   18.8020   37.0560 C   0  0  0  0  0
   36.8060   20.2580   34.5640 C   0  0  0  0  0
   41.9710   24.3170   39.6950 F   0  0  0  0  0
   42.1280   25.5110   37.9410 F   0  0  0  0  0
   40.2340   25.3420   38.9410 F   0  0  0  0  0
   35.4180   14.0140   41.6140 F   0  0  0  0  0
   35.6500   15.7270   42.8940 F   0  0  0  0  0
   33.7330   15.3160   42.0820 F   0  0  0  0  0
   38.6170   21.1530   38.3050 O   0  0  0  0  0
   37.4970   17.9290   36.2080 O   0  0  0  0  0
   40.2220   23.6390   36.5760 O   0  0  0  0  0
   38.7360   20.5480   36.1290 N   0  0  0  0  0
   41.1110   22.2030   38.0830 N   0  0  0  0  0
   36.3390   19.2080   37.8080 N   0  0  0  0  0
   35.3850   18.6370   39.8610 C   0  0  0  0  0
   36.2750   16.8880   38.4890 C   0  0  0  0  0
   35.0570   17.7240   40.8230 C   0  0  0  0  0
   35.9500   15.9680   39.4500 C   0  0  0  0  0
   41.6940   19.9010   38.0520 C   0  0  0  0  0
   37.2910   20.3340   36.0160 C   0  0  0  0  0
   40.8200   21.0120   37.3320 C   0  0  0  0  0
   39.2950   20.8540   37.3190 C   0  0  0  0  0
   37.0260   18.9830   36.6670 C   0  0  0  0  0
   40.8590   23.4540   37.6320 C   0  0  0  0  0
   36.0000   18.2370   38.6900 C   0  0  0  0  0
   35.3420   16.3720   40.6360 C   0  0  0  0  0
   41.3060   24.6440   38.5650 C   0  0  0  0  0
   35.0370   15.3260   41.7800 C   0  0  0  0  0
  1 20  1  0  0  0
  2 20  1  0  0  0
  3 21  1  0  0  0
  4 28  1  0  0  0
  5 28  1  0  0  0
  6 28  1  0  0  0
  7 29  1  0  0  0
  8 29  1  0  0  0
  9 29  1  0  0  0
 10 23  2  0  0  0
 11 24  2  0  0  0
 12 25  2  0  0  0
 13 21  1  0  0  0
 13 23  1  0  0  0
 14 22  1  0  0  0
 14 25  1  0  0  0
 15 24  1  0  0  0
 15 26  1  0  0  0
 16 18  2  0  0  0
 16 26  1  0  0  0
 17 19  1  0  0  0
 17 26  2  0  0  0
 18 27  1  0  0  0
 19 27  2  0  0  0
 20 22  1  0  0  0
 21 24  1  0  0  0
 22 23  1  0  0  0
 25 28  1  0  0  0
 27 29  1  0  0  0
M  END
>  <MOLID> (1eleA1)
1eleA1

>  <SMILES_CANONICAL> (1eleA1)
C[C@@H](C(=O)Nc1ccc(cc1)C(F)(F)F)NC(=O)[C@H](C(C)C)NC(=O)C(F)(F)F	

>  <FINGERPRINT> (1eleA1)
0000000000000000010000000000001000000000000000000011100000000000000000000001000000000001001000000000010000000001000001100000000000100000000000000000000000000000000000000000000000000000110000000000000000000000000001000000000000100000000000000000000000001000000000000000000000000000000000001000000000000000000010101101000000000000001010000000000000000100010000000000000010110000000000000000011000000000100000000000001000000001010100001010000000000001100000000000001000000000010000000000000000000000000000000000000000000000000001000000000000000000000000100000000000000000000000000000100000000000000000000000000000000000000000000000001000000101010000000001000000000000000000000011100000000000000001100000000000100000000000000010000000000011000000100110000000000000000110100000000000000000000000000000000010000000000000000000000000000000000000000000000000000010000000001001000000000000000000001000000000001000000000001000000000000000000000000000011000000000000000010010000000010000010000000000000000000000000000000000001000000000

>  <MACCS166> (1eleA1)
000000000000000000000000000000000000000001001000010001000000000000000000010100100000000000010010001000000111010100001000000000000010111100011100010010100101011110111000

>  <OB_MW> (1eleA1)
427.133

>  <OB_logP> (1eleA1)
3.7065

>  <OB_PSA> (1eleA1)
87.3

>  <OB_MR> (1eleA1)
90.4071

>  <OB_ATOMIC_CHARGES> (1eleA1)
0.0022754398 0.0022754398 0.0333840635 -0.162004199 -0.162004199 -0.162004199 -0.165857779 -0.165857779 -0.165857779 -0.2714758499 -0.2711281405 -0.2641877259 -0.1963285443 -0.190705267 -0.1777726954 0.0165410327 0.0165410327 0.0051854876 0.0051854876 0.0289654206 0.173177152 0.172916209 0.2616071828 0.2654014496 0.3371093255 0.0734046299 0.0715044247 0.4711313143 0.4185790652

>  <MCT_HBD> (1eleA1)
3

>  <MCT_HBA> (1eleA1)
6

>  <ENSEMBLE_TOTAL> (1eleA1)
50

>  <ENSEMBLE_COORDS> (1eleA1)
2.7973 -0.3611 0.7172 3.7663 -0.9101 -1.5128 -1.4297 0.5459 -4.0048 3.7353 4.6049 1.1262 3.8923 5.7989 -0.6278 1.9983 5.6299 0.3722 -2.8177 -5.6981 3.0452 -2.5857 -3.9851 4.3252 -4.5027 -4.3961 3.5132 0.3813 1.4409 -0.2638 -0.7387 -1.7831 -2.3608 1.9863 3.9269 -1.9928 0.5003 0.8359 -2.4398 2.8753 2.4909 -0.4858 -1.8967 -0.5041 -0.7608 -2.8507 -1.0751 1.2922 -1.9607 -2.8241 -0.0798 -3.1787 -1.9881 2.2542 -2.2857 -3.7441 0.8812 3.4583 0.1889 -0.5168 -0.9447 0.6219 -2.5528 2.5843 1.2999 -1.2368 1.0593 1.1419 -1.2498 -1.2097 -0.7291 -1.9018 2.6233 3.7419 -0.9368 -2.2357 -1.4751 0.1212 -2.8937 -3.3401 2.0672 3.0703 4.9319 -0.0038 -3.1987 -4.3861 3.2112
3.2980 -0.1674 -0.5606 2.7465 0.6470 1.6954 -2.0094 1.1093 -3.2567 3.6223 6.0948 -0.0816 4.6609 4.3012 0.5818 4.6723 4.8525 -1.5269 -1.9591 -5.3570 3.4683 -3.3882 -3.9535 4.3207 -4.0611 -5.4540 2.8946 1.5240 1.7366 -2.7003 -1.4352 -2.0376 -2.8183 1.6099 4.5597 -1.0942 -0.2889 0.9715 -1.5150 2.7638 2.6770 -0.4309 -2.1974 -0.8588 -0.9624 -2.7746 -1.3476 1.3109 -2.1804 -3.1225 -0.2247 -2.9975 -2.2422 2.2887 -2.4103 -4.0849 0.8299 2.2020 0.4264 0.3000 -0.9047 0.2844 -2.6334 1.6628 1.7299 -0.2749 0.9887 1.4817 -1.6241 -1.5012 -1.0094 -2.1475 2.6254 4.0247 -0.6572 -2.3275 -1.8062 0.0092 -2.7866 -3.6629 2.0510 3.8910 4.8051 -0.4167 -3.0458 -4.5977 3.1753
2.6143 0.0745 0.9768 3.5478 -0.8220 -1.1542 -1.1618 1.3253 -3.2775 2.8088 4.9564 0.8022 4.2625 5.8889 -0.5238 2.1401 5.9520 -1.0183 -4.6828 -5.1978 2.8929 -2.6489 -5.6794 3.5160 -3.6705 -3.9578 4.3708 0.3272 2.2150 -0.6748 -2.2772 0.5748 -0.8057 3.6398 3.8861 -2.4568 0.6928 0.3482 -1.9937 2.9413 2.7823 -0.5455 -1.5275 -1.6103 -1.1495 -1.8116 -3.7198 -0.0271 -2.5721 -1.6708 1.0088 -2.2924 -4.4494 0.9973 -3.0859 -2.4537 2.1144 3.2809 0.4119 -0.3328 -0.6389 0.1297 -2.5135 2.6038 1.5059 -1.1301 1.0883 1.4139 -1.2103 -1.5644 -0.2436 -1.3797 3.2609 3.8925 -1.2894 -1.9607 -2.2711 -0.0293 -2.9476 -3.7929 2.1217 3.1165 5.1613 -0.5047 -3.4828 -4.6501 3.2158
1.5827 -0.1350 0.5862 3.2094 1.4972 1.3708 -2.3946 1.3018 -2.2910 3.4378 5.1690 0.5494 5.3246 4.9572 -0.5181 3.7343 6.1875 -1.3573 -3.0719 -6.3463 2.6380 -2.6963 -4.9223 4.2433 -4.6820 -5.0606 3.3543 1.2660 1.8454 -3.0720 -1.1384 -1.8469 -2.4563 3.9764 3.4508 -2.4758 -0.1464 1.1972 -1.3754 2.3413 3.2872 -0.8454 -1.8180 -0.9056 -0.4295 -2.7542 -1.6673 1.6330 -2.1170 -3.2624 -0.0680 -3.1161 -2.6549 2.4715 -2.5144 -4.3296 0.8343 1.9359 1.3351 0.5650 -1.0999 0.5298 -2.2274 2.1509 1.8535 -0.8452 1.0584 1.6310 -1.8767 -1.3405 -0.8775 -1.7284 3.4553 3.8455 -1.4358 -2.2281 -1.9773 0.3126 -2.9803 -4.0476 2.0664 3.9795 5.0327 -0.6876 -3.3545 -5.0873 3.0654
1.4589 -0.3699 0.2857 3.6972 -0.7622 -0.7177 -2.0085 1.3185 -2.9556 3.4926 5.8334 -0.0007 1.4565 5.1236 -0.2986 2.4859 4.7292 1.5853 -4.2590 -3.9803 3.8523 -2.8385 -5.4389 3.0834 -2.1435 -3.8149 4.3623 1.8990 0.9843 -3.5787 -0.8112 -1.9627 -2.5960 4.4204 3.2898 -0.3427 0.2095 1.0377 -2.0009 2.2208 2.6377 -0.6975 -1.9614 -0.6930 -1.0059 -3.0745 -1.1223 1.0776 -1.6365 -2.7952 0.0748 -3.3497 -1.9382 2.1124 -1.9333 -3.6712 1.1825 2.7062 0.2745 -0.2597 -0.8090 0.4127 -2.8048 2.5053 1.3579 -1.2922 1.5238 1.0913 -2.4128 -1.1735 -0.8854 -2.1281 3.2129 3.5089 -0.3024 -2.1824 -1.5685 0.0175 -2.7616 -3.2701 2.1632 2.6574 4.7905 0.2404 -3.0036 -4.1175 3.3568
2.3698 -0.4947 -0.3127 4.2591 -0.3240 -1.9165 -2.0263 1.2024 -2.3227 2.2101 5.8790 -0.4512 1.7251 4.3981 1.0742 3.6789 5.3534 1.0701 -2.7629 -4.5114 4.4150 -4.7863 -3.9466 3.8228 -3.8082 -5.6287 2.8611 1.4325 1.5275 -3.7623 -0.6550 -2.0306 -2.1979 4.3741 3.8883 -1.1577 0.3331 0.9862 -1.8084 2.4059 2.7111 -0.8019 -1.4600 -0.7610 -0.4034 -2.6601 -1.1736 1.6299 -1.9708 -3.0060 0.2052 -3.1315 -2.0311 2.5534 -2.4875 -3.9279 1.1880 3.3121 0.4400 -1.0260 -0.7944 0.3361 -2.4266 2.6740 1.6258 -1.7153 1.4345 1.3604 -2.5442 -0.9738 -0.9606 -1.6846 3.2681 3.7741 -0.6365 -2.0482 -1.6808 0.4123 -3.0363 -3.4659 2.3252 2.7161 4.8402 0.2608 -3.5922 -4.3800 3.3498
2.3819 -0.3536 -0.1319 4.0569 -0.4597 -1.9653 -2.0165 1.1818 -2.3745 2.2082 5.8763 -0.4442 1.7139 4.3910 1.0756 3.6688 5.3480 1.0845 -2.8543 -4.3420 4.4930 -4.8567 -4.0692 3.6621 -3.5845 -5.6725 2.9281 1.4550 1.5374 -3.7698 -0.6155 -2.0395 -2.1893 4.3767 3.8889 -1.1433 0.3394 0.9866 -1.8256 2.4000 2.7191 -0.8069 -1.4573 -0.7614 -0.4188 -2.5915 -1.1706 1.6552 -2.0361 -2.9978 0.1631 -3.0603 -2.0297 2.5792 -2.5466 -3.9190 1.1486 3.3027 0.4409 -1.0212 -0.7775 0.3219 -2.4475 2.6751 1.6302 -1.7121 1.4444 1.3663 -2.5525 -0.9544 -0.9681 -1.6921 3.2674 3.7749 -0.6290 -2.0461 -1.6759 0.4039 -3.0283 -3.4620 2.3172 2.7104 4.8368 0.2694 -3.5753 -4.3790 3.3440
2.5763 0.1194 1.0711 3.6011 -0.8404 -0.9898 -1.0290 1.2361 -3.3582 4.2377 5.8809 -0.4343 2.1569 5.9468 -1.0793 2.6880 4.9616 0.7920 -4.7712 -5.1436 2.8307 -2.7624 -5.5975 3.5512 -3.8265 -3.8600 4.3173 0.3576 2.1987 -0.7249 -2.2416 0.5426 -0.9164 3.7138 3.8676 -2.4040 0.7763 0.2994 -1.9791 2.9618 2.7754 -0.5070 -1.4688 -1.6468 -1.1711 -1.7887 -3.7282 -0.0049 -2.6011 -1.6568 0.9441 -2.3086 -4.4336 1.0174 -3.1570 -2.4132 2.0477 3.2955 0.4171 -0.2201 -0.5335 0.0631 -2.5437 2.6519 1.4857 -1.0783 1.1401 1.3871 -1.2115 -1.5025 -0.2867 -1.4391 3.2885 3.8813 -1.2530 -1.9442 -2.2807 -0.0518 -3.0131 -3.7510 2.0959 3.0907 5.1569 -0.4909 -3.5880 -4.5813 3.1898
4.7153 0.6101 -1.7211 3.2981 0.2718 0.2758 -1.7331 0.9679 -2.6452 3.5670 5.0044 0.7047 5.0530 5.7588 -0.6986 2.9746 6.3956 -0.8626 -3.5976 -4.9265 4.3985 -5.2712 -5.4293 3.0934 -3.3579 -6.4371 2.8495 0.5383 2.8361 -0.6311 -0.5279 -1.8045 -1.5915 3.5818 4.3279 -2.7608 0.4543 0.7552 -1.6282 3.1961 3.0278 -0.8811 -2.3738 -1.0472 -0.3778 -3.8739 -1.9387 1.2851 -1.9747 -3.2278 0.5264 -4.2589 -2.9365 2.1041 -2.3835 -4.2975 1.4121 3.2973 0.6008 -1.1986 -0.9613 0.5647 -1.4095 2.5803 1.8961 -1.5370 1.1012 1.8919 -1.1815 -1.2177 -0.8983 -1.1335 3.5015 4.1952 -1.5429 -2.6788 -2.0832 0.4658 -3.4907 -4.1735 2.1667 3.7699 5.3280 -0.5987 -3.9278 -5.2323 3.1175
2.7861 -1.0543 -1.1001 3.9744 0.4615 0.4000 -2.0979 1.4356 -2.5969 1.3853 5.0091 -0.0305 3.1456 5.1724 1.2437 3.1892 5.9698 -0.7830 -4.4231 -4.1263 3.9391 -3.3006 -5.7194 2.9721 -2.2918 -4.3542 4.3383 1.6679 1.1196 -3.6066 -0.9864 -1.8773 -2.4567 4.4753 3.4448 -0.7074 0.1876 1.0845 -1.8243 2.2854 2.6878 -0.7478 -1.8790 -0.6724 -0.6666 -2.9675 -1.2216 1.3976 -1.8442 -2.9402 0.1208 -3.2954 -2.1072 2.3557 -2.2037 -3.8974 1.1497 2.7081 0.2892 -0.4102 -0.9147 0.5009 -2.5432 2.5529 1.4270 -1.4039 1.4359 1.2025 -2.4018 -1.2542 -0.8188 -1.8924 3.2724 3.6253 -0.5352 -2.2121 -1.6503 0.2311 -2.9063 -3.5049 2.2291 2.7407 4.9331 -0.0297 -3.2301 -4.4188 3.3586
3.1699 -0.1662 -0.5028 2.8914 0.9672 1.6664 -2.4401 1.2086 -2.5978 3.7871 6.1690 -0.5182 4.5759 4.4619 0.5781 5.1305 4.7717 -1.5089 -2.6398 -4.5535 4.2801 -4.5833 -4.9478 3.3677 -2.8409 -6.1004 2.7586 1.4349 1.6618 -2.7364 -0.6816 -1.8041 -2.2782 2.0641 4.5414 -1.8404 -0.3403 1.2522 -1.3194 2.9430 2.7397 -0.6985 -2.2978 -0.9347 -0.8323 -3.4474 -1.6556 1.1436 -1.8343 -3.0982 0.0530 -3.6739 -2.5818 2.0927 -2.0762 -4.0922 1.0712 2.2230 0.6570 0.3449 -1.1167 0.5385 -2.3080 1.7757 1.9381 -0.3484 0.9684 1.6071 -1.6006 -1.3133 -0.8643 -1.8011 2.9110 4.0542 -1.0958 -2.4720 -1.9160 0.0973 -2.9597 -3.8507 2.0561 4.0972 4.8508 -0.6310 -3.2545 -4.8540 3.1082
3.7985 -0.8266 -2.5272 4.7487 0.2935 -0.5655 -1.4045 1.1273 -3.5272 0.4478 4.2225 0.8190 1.4516 2.6521 1.9505 2.3654 4.6189 1.7750 -1.9377 -4.2428 4.0578 -3.2722 -2.6131 4.6212 -4.0251 -4.2639 3.4248 1.6424 1.8487 -3.7006 -1.7162 -2.0056 -2.8071 2.9638 4.0905 -0.8675 0.5570 0.4845 -2.1964 2.2497 1.9299 -0.4360 -1.6083 -0.5176 -1.0134 -1.8215 -0.6525 1.3747 -2.3168 -2.5631 -0.0282 -2.1492 -1.3490 2.4778 -2.6611 -3.3147 1.1557 3.4643 0.0149 -1.3184 -0.4850 0.0122 -3.0761 2.7671 1.3223 -1.6452 1.6185 1.2363 -2.6347 -1.3037 -0.9714 -2.2865 2.3742 3.2734 -0.1654 -1.8827 -1.2947 0.0731 -2.5786 -2.7358 2.3668 1.6623 3.6806 1.0901 -2.9488 -3.4567 3.6089
2.8311 0.3776 0.4595 4.3291 -0.2483 -1.4187 -1.7592 1.2374 -1.8628 2.4367 6.1835 -1.6003 2.1540 5.2582 0.3574 4.0590 6.1863 -0.1459 -3.8564 -6.3041 2.6427 -3.4234 -4.9138 4.2683 -5.3856 -4.9049 3.3237 1.5066 1.0824 -3.4697 -0.1043 -0.5647 0.5651 4.6674 4.0649 -1.7417 0.5855 1.1465 -1.3520 2.6552 3.1110 -1.0948 -1.9345 -1.3535 -0.6403 -1.6215 -2.9444 1.1612 -3.8304 -2.3647 0.3430 -2.1350 -3.8232 2.0346 -4.3840 -3.3368 1.2692 3.6277 0.8819 -0.7132 -0.5712 0.3322 -1.6318 2.8953 1.8054 -1.6585 1.6077 1.2913 -2.2625 -0.8269 -0.5442 -0.4277 3.5595 4.1431 -1.2173 -2.5003 -2.1639 0.3040 -3.5720 -4.0353 2.0859 3.0477 5.4320 -0.6496 -4.0577 -5.0318 3.0724
2.7144 0.5570 0.6419 4.1963 -0.2779 -1.1691 -1.7956 1.2986 -1.7249 2.6272 6.2127 -1.8262 2.2673 5.4401 0.1840 4.2239 6.2357 -0.3441 -3.8629 -6.4024 2.5256 -3.4222 -5.0660 4.1930 -5.3888 -5.0278 3.2622 1.4469 1.1692 -3.3880 -0.1296 -0.5940 0.6157 4.7490 3.9829 -1.7783 0.5553 1.1752 -1.2574 2.6804 3.1740 -1.1092 -1.9686 -1.3413 -0.6023 -1.6420 -2.9905 1.1427 -3.8561 -2.3885 0.3582 -2.1483 -3.8988 1.9896 -4.4023 -3.3919 1.2547 3.5424 0.9331 -0.5577 -0.6111 0.3776 -1.5462 2.8675 1.8223 -1.5765 1.5671 1.3377 -2.1763 -0.8585 -0.5405 -0.3712 3.6380 4.1502 -1.2823 -2.5268 -2.1846 0.3171 -3.5842 -4.1160 2.0423 3.1839 5.4993 -0.8149 -4.0627 -5.1453 2.9977
1.0511 1.9188 1.6855 2.0469 -0.2171 0.8610 -2.2088 1.5432 -2.0719 4.3779 5.2575 -2.3598 3.2074 5.7131 -0.5766 5.3365 5.2911 -0.4035 -2.5052 -4.7790 4.1338 -4.3572 -5.3346 3.1189 -2.4792 -6.2706 2.5428 0.4829 2.8581 -2.1169 -1.3991 -1.7879 -2.7191 4.8460 2.6296 -0.9812 -0.0052 0.7644 -1.3044 2.6226 3.1661 -0.6424 -2.3782 -0.9100 -0.7965 -3.5042 -1.8481 1.0959 -1.6791 -3.0358 0.0272 -3.6569 -2.8353 1.9962 -1.8581 -4.1065 0.9811 2.0689 1.2859 0.7737 -1.0944 0.5270 -2.2255 2.0945 1.8141 -0.6457 0.7759 1.8967 -1.4053 -1.6091 -0.8581 -1.9440 3.9419 3.4557 -0.8947 -2.4764 -1.9544 0.0734 -2.8081 -4.0162 1.9293 4.2031 4.9239 -1.0556 -3.0360 -5.0916 2.9243
3.7528 -0.4398 -0.9431 4.8707 0.2072 -3.0735 -1.5931 1.2562 -2.1054 0.9047 4.9336 -0.1304 1.9719 3.6061 1.2312 2.8069 5.5553 0.7331 -5.0841 -5.0355 2.9648 -3.1667 -5.2060 3.9862 -4.4868 -3.5225 4.4148 1.7600 0.7363 -3.8057 0.2843 -0.3249 0.3261 3.3561 4.6328 -1.8358 0.7820 1.2099 -1.7700 2.9157 2.5480 -0.9284 -1.6081 -1.2613 -0.6704 -3.3354 -2.7766 0.0454 -1.6612 -1.9805 1.6045 -3.9109 -3.5235 1.0064 -2.2747 -2.7827 2.6344 4.1992 0.7030 -1.8198 -0.3843 0.3736 -1.8926 3.1305 1.7350 -2.1003 1.8357 1.1579 -2.6530 -0.5208 -0.4011 -0.5988 2.8653 3.9207 -0.9647 -2.1655 -1.9684 0.3582 -3.3601 -3.5258 2.3546 2.1401 4.4923 0.2153 -4.0243 -4.3195 3.4168
2.1443 1.7930 1.7765 2.9546 -0.1506 0.4349 -2.0718 1.5484 -0.8941 4.6907 5.4312 -2.9301 2.7386 5.7023 -2.0083 4.5485 6.1010 -0.8622 -2.9286 -6.2277 3.2586 -4.8455 -5.1976 3.4229 -4.4321 -6.4422 1.6935 0.4274 3.0852 -1.5451 -1.2692 -1.5997 -2.1845 5.0784 3.1611 -1.4120 0.2993 0.8839 -0.9117 2.8882 3.4090 -0.7233 -1.6366 -1.0223 0.0550 -2.5459 -2.0791 2.0021 -2.5252 -3.2248 -0.1313 -3.0389 -3.1698 2.6157 -3.0611 -4.3936 0.5238 2.8785 1.3497 0.5380 -1.0024 0.6681 -1.5097 2.4528 2.0242 -0.7509 0.9642 2.0797 -1.0783 -1.3293 -0.7789 -1.2727 4.0571 3.8343 -1.3075 -2.2645 -2.1126 0.5766 -3.3018 -4.3783 1.8465 3.9993 5.2587 -1.7738 -3.8693 -5.5523 2.5514
4.1125 -0.0927 -1.8997 4.6120 1.2332 -3.9470 -1.4504 0.5083 -2.5376 2.5642 3.6991 1.6691 2.6268 5.6639 0.7304 1.0054 4.2878 0.2566 -4.5256 -5.4659 3.3192 -3.6023 -4.1346 4.7734 -5.4370 -3.5311 3.7587 1.3849 1.1687 -4.0165 0.0919 -0.2387 0.4556 4.1208 4.3989 -1.0910 0.8032 0.9237 -1.7969 2.7335 2.5506 -0.9981 -1.4422 -1.6350 -0.6166 -3.0716 -3.2483 0.1189 -1.8669 -1.8816 1.7166 -3.7253 -3.8787 1.1137 -2.5649 -2.5558 2.7822 4.1449 1.2826 -2.5159 -0.1989 -0.1012 -1.9445 2.8660 2.0712 -2.3529 1.6233 1.3336 -2.8217 -0.4942 -0.6224 -0.5539 3.1589 3.8018 -0.6184 -2.1029 -2.2073 0.4339 -3.4548 -3.5238 2.5010 2.3384 4.3571 0.5035 -4.2495 -4.1634 3.5780
3.0818 0.8261 -2.6883 4.7646 1.1937 -0.9191 -1.0982 0.3635 -2.7365 4.3318 5.0515 -2.5896 3.6046 6.6325 -1.2776 5.4472 5.5783 -0.7950 -3.8302 -5.0492 4.3464 -5.6229 -5.2581 3.1205 -3.9105 -6.5548 2.7744 0.1670 2.9008 -0.5751 -0.0354 -1.9207 -0.7071 3.3148 4.5499 0.7563 0.5654 0.6717 -0.9942 2.8086 3.4306 -1.2043 -2.3026 -1.4054 -0.5407 -3.8464 -2.0390 1.2068 -2.2365 -3.6174 0.3219 -4.3091 -2.9605 2.0732 -2.7130 -4.5969 1.2725 3.2925 1.0150 -1.2040 -0.8071 0.3028 -1.2532 2.4640 2.1475 -0.6214 0.9537 1.9709 -0.7457 -0.9668 -1.1245 -0.7920 3.4118 4.4243 -0.4626 -2.7395 -2.3698 0.3249 -3.7162 -4.2919 2.1155 4.1923 5.4080 -1.2875 -4.2658 -5.2790 3.0815
3.0675 2.3805 -4.0661 4.9555 1.4291 -2.7850 -0.7754 -0.3946 -3.3242 4.5371 5.2148 -0.6762 2.8223 5.9934 0.4197 4.3512 4.8434 1.4619 -4.4962 -3.6891 4.6142 -5.5103 -4.9982 3.1939 -3.5485 -5.5386 3.9618 0.4748 2.5504 -1.8463 0.2196 -2.2226 -0.8807 2.1098 3.1932 0.8987 0.9064 0.2816 -1.7061 3.0420 3.1730 -1.2213 -2.0185 -1.5707 -0.7593 -3.9311 -2.1621 0.5898 -1.7627 -3.1355 1.0320 -4.4773 -2.8524 1.6100 -2.3468 -3.8743 2.1299 3.4522 1.4600 -2.9299 -0.4723 -0.1308 -1.8656 2.7697 1.8022 -1.6137 1.2656 1.6167 -1.7383 -0.6795 -1.4149 -1.0974 2.8668 3.6622 0.0532 -2.5117 -2.2960 0.2942 -3.6568 -3.7523 2.4117 3.6456 4.9198 0.3043 -4.2988 -4.4881 3.5347
3.0675 2.3806 -4.0661 4.9555 1.4290 -2.7849 -0.7754 -0.3947 -3.3242 4.5371 5.2149 -0.6762 2.8223 5.9934 0.4197 4.3513 4.8435 1.4619 -4.4962 -3.6891 4.6142 -5.5102 -4.9982 3.1939 -3.5485 -5.5386 3.9618 0.4747 2.5504 -1.8463 0.2196 -2.2226 -0.8807 2.1098 3.1932 0.8987 0.9064 0.2817 -1.7060 3.0420 3.1730 -1.2213 -2.0185 -1.5706 -0.7593 -3.9311 -2.1622 0.5898 -1.7628 -3.1355 1.0320 -4.4773 -2.8523 1.6100 -2.3468 -3.8744 2.1299 3.4522 1.4600 -2.9299 -0.4724 -0.1308 -1.8656 2.7697 1.8021 -1.6137 1.2656 1.6167 -1.7383 -0.6795 -1.4149 -1.0974 2.8668 3.6622 0.0533 -2.5116 -2.2960 0.2942 -3.6568 -3.7523 2.4116 3.6456 4.9198 0.3043 -4.2989 -4.4881 3.5347
3.5440 -0.5761 -1.9810 5.0748 1.1832 -1.2683 -1.7692 1.5196 -0.6185 2.5083 6.2191 -1.0818 2.5415 4.9269 0.6752 4.3796 5.8596 -0.0258 -5.1741 -4.3817 3.9707 -4.8921 -5.9778 2.5093 -3.3501 -5.5733 3.9902 0.9079 1.4246 -3.3791 0.2771 -1.1961 0.0527 4.3924 4.1618 -2.2083 0.5682 1.1571 -1.1095 2.6975 3.0247 -1.1119 -1.9655 -1.3671 -0.5362 -3.8148 -2.7368 0.1769 -1.7990 -2.5938 1.5079 -4.3643 -3.5942 1.0577 -2.3829 -3.5216 2.4488 3.6211 0.7550 -1.2692 -0.7520 0.5789 -1.2226 2.7622 1.8260 -1.9184 1.3299 1.4345 -2.2238 -0.7343 -0.7311 -0.4678 3.5176 4.1057 -1.3476 -2.4818 -2.2065 0.4150 -3.6191 -4.0085 2.2395 3.2320 5.2653 -0.4433 -4.2547 -4.9773 3.1691
3.1968 0.7354 0.4314 3.5723 -0.3126 -1.7958 -1.3861 1.8180 0.7244 3.1895 5.6608 -0.1510 5.1024 5.9401 -1.1520 3.2501 6.4198 -2.1934 -3.6633 -5.9902 3.7267 -5.5664 -5.5254 2.7795 -4.0922 -6.7348 1.7230 0.4032 2.0648 -2.7150 0.1603 -1.2231 0.1712 4.5017 3.7910 -2.8306 0.5827 1.3017 -0.5428 2.8382 3.3399 -1.2804 -2.1487 -0.9289 0.2592 -4.0152 -2.2648 0.9427 -1.7561 -3.0690 1.2649 -4.5192 -3.3925 1.4733 -2.2973 -4.2841 1.8368 3.4684 0.9800 -1.0316 -0.7997 0.9377 -0.3561 2.5808 1.9921 -1.7191 1.0814 1.7831 -1.7287 -0.8382 -0.5141 0.0794 3.7744 4.1375 -1.9032 -2.5764 -2.0911 0.8386 -3.6293 -4.4394 1.9525 3.8224 5.5287 -1.3446 -4.2364 -5.6606 2.5405
1.6772 0.7393 1.8052 3.6165 0.6118 0.2630 -1.0641 0.9264 -2.8414 4.3116 6.2398 -2.1677 5.2922 4.3870 -1.5872 3.8706 4.3963 -3.2411 -3.8323 -6.6945 2.0851 -3.5314 -5.5569 3.9238 -5.3181 -5.2366 2.7254 1.7582 1.9416 -2.2313 -2.7264 0.0885 -0.7784 2.0260 5.4035 -0.9355 0.0983 1.3483 -0.7405 3.1042 3.4230 -0.4159 -1.1198 -1.5249 -0.2342 -1.1369 -3.5030 1.1445 -3.2011 -2.3798 0.5689 -1.8136 -4.4587 1.8107 -3.9268 -3.3942 1.2956 2.6708 1.5343 0.9972 -0.4757 0.3204 -1.5842 2.0276 2.5754 0.0929 1.3077 1.9309 -1.0877 -1.5800 -0.3510 -0.8128 2.9652 4.6256 -1.0679 -1.8591 -2.4216 0.4899 -3.2689 -4.4096 1.8827 4.1085 4.9059 -2.0058 -3.9805 -5.4673 2.6464
3.6000 0.0798 -3.3829 5.0396 1.6975 -2.2632 -1.7449 0.8111 -1.8265 2.2843 5.7444 0.3833 2.7746 3.8591 1.3647 4.3617 5.2341 0.7914 -4.3716 -3.7476 4.6374 -5.5610 -4.8213 3.1595 -3.6848 -5.6667 3.8656 0.5520 1.9787 -3.5454 0.2392 -0.9569 0.3449 3.9543 4.5924 -1.8567 0.6731 0.8138 -1.5567 2.5494 2.9207 -1.0837 -1.6369 -1.8386 -0.7135 -3.6967 -2.4921 0.3779 -1.5371 -3.1370 1.2657 -4.3236 -3.1291 1.3850 -2.2099 -3.7942 2.3632 3.6669 1.0566 -2.2317 -0.4855 -0.0286 -1.7653 2.5876 2.1232 -2.2914 1.1784 1.6258 -2.5476 -0.5732 -0.9555 -0.5759 3.2803 4.0834 -0.9636 -2.2442 -2.4671 0.3380 -3.5540 -3.8010 2.4252 3.1710 4.7170 0.3906 -4.2891 -4.5020 3.5115
4.4502 -0.2848 -1.8232 4.4195 1.4496 -3.5877 -1.1654 0.7159 -1.9688 2.8953 6.0170 0.6823 4.6409 5.1767 -0.3127 3.1752 6.3207 -1.4563 -5.7910 -4.3490 3.5476 -5.0595 -6.0864 2.4461 -3.9955 -5.3919 4.2114 1.5299 1.4468 -3.1396 -0.2026 -0.4097 1.1054 1.3582 4.0334 -0.3786 1.0541 0.7740 -0.9708 3.2034 3.2775 -1.5560 -1.6356 -1.6003 -0.3057 -3.5574 -3.0051 0.0821 -1.9551 -2.5950 1.8457 -4.2711 -3.8206 0.8825 -2.7321 -3.4545 2.7137 4.3566 1.1965 -2.0969 -0.0724 -0.0819 -1.2887 3.1637 1.8344 -1.3990 1.8442 1.3369 -1.9581 -0.6289 -0.6848 -0.0135 2.5227 4.1627 -0.7470 -2.3542 -2.3554 0.5836 -3.8404 -4.0653 2.2550 3.3114 5.4088 -0.4594 -4.6642 -4.9665 3.1064
0.3704 1.1072 1.6762 2.6318 1.8538 2.1446 -2.4190 1.5192 -2.1296 4.2554 4.7825 -2.7984 3.6492 5.6175 -0.8774 5.6477 4.7898 -1.1233 -4.0608 -5.0144 3.6809 -3.2774 -6.3922 2.1856 -1.9183 -5.3994 3.5707 0.9589 2.5165 -2.4021 -0.9419 -1.6431 -2.4675 4.5637 2.2403 -1.2205 -0.2669 1.1518 -1.0312 2.6067 3.2478 -0.5026 -2.3558 -0.9081 -0.7617 -3.5164 -1.8997 1.0890 -1.6920 -3.0670 0.0009 -3.7016 -2.9252 1.9407 -1.8952 -4.1697 0.9093 1.4292 2.0958 1.2525 -1.1504 0.6985 -2.0766 1.8640 2.0286 -0.2063 0.8046 1.9687 -1.3088 -1.4432 -0.7492 -1.7894 3.8698 3.2393 -1.0503 -2.4674 -1.9724 0.0837 -2.8550 -4.1062 1.8495 4.3438 4.6042 -1.4556 -3.0338 -5.2151 2.8177
4.0823 -0.4823 -2.5641 4.1211 1.5958 -3.9223 -1.2384 1.2879 -1.2440 3.3282 6.0980 0.3675 3.9614 5.6830 -1.6719 1.8456 5.5874 -1.1462 -4.1830 -5.2717 4.2535 -5.9447 -4.5519 3.1989 -4.7829 -6.2101 2.3842 1.2854 1.9259 -2.9150 0.1354 -0.6544 1.1431 3.0607 3.4350 0.8019 1.1130 0.7999 -0.8928 3.5137 3.0737 -1.4435 -1.6915 -1.3678 -0.1270 -3.6389 -2.7180 0.2249 -1.8974 -2.6404 1.8999 -4.3447 -3.6018 0.9540 -2.6633 -3.5830 2.6931 4.2005 1.0192 -2.5280 -0.1908 0.2032 -1.1004 3.2521 1.6544 -1.5290 1.7886 1.4845 -1.8865 -0.5352 -0.6384 0.1155 3.2217 3.8456 -0.3431 -2.3683 -2.2064 0.7165 -3.8440 -4.0508 2.2467 3.0937 5.2955 -0.7016 -4.6802 -5.0123 3.0156
4.0760 -0.4844 -2.5559 4.1217 1.5917 -3.9166 -1.2441 1.2744 -1.2671 3.3338 6.1017 0.3660 3.9690 5.6819 -1.6718 1.8522 5.5927 -1.1493 -4.1907 -5.2585 4.2611 -5.9482 -4.5600 3.1855 -4.7679 -6.2169 2.3946 1.2855 1.9323 -2.9128 0.1223 -0.6381 1.1480 3.0587 3.4398 0.8038 1.1077 0.8054 -0.8915 3.5147 3.0742 -1.4402 -1.6889 -1.3742 -0.1313 -3.6298 -2.7351 0.2155 -1.9033 -2.6312 1.9045 -4.3357 -3.6176 0.9462 -2.6695 -3.5724 2.6992 4.1978 1.0167 -2.5215 -0.1901 0.1982 -1.1055 3.2496 1.6555 -1.5245 1.7863 1.4888 -1.8841 -0.5396 -0.6353 0.1146 3.2226 3.8484 -0.3415 -2.3670 -2.2106 0.7135 -3.8429 -4.0522 2.2468 3.0988 5.2981 -0.7024 -4.6790 -5.0131 3.0167
1.4432 1.8121 1.7796 0.5155 4.0842 1.4465 -0.7914 -0.0031 -3.6897 4.6308 4.7534 0.1478 5.6901 3.8515 -1.5297 4.6234 5.7328 -1.7969 -2.9257 -6.5061 2.6572 -3.4791 -5.0171 4.1511 -4.8817 -5.5499 2.5758 2.1483 0.6734 -1.3471 -2.7644 -0.3282 -1.6823 3.0115 3.6398 -2.7773 -0.0714 1.2155 -1.7256 2.6832 3.1950 -0.5260 -1.1363 -1.2752 -0.3017 -1.1654 -2.6876 1.6339 -2.9346 -2.8374 -0.0090 -1.7360 -3.6499 2.3810 -3.5578 -3.8657 0.8040 0.6871 2.7158 0.8341 -0.4267 -0.0891 -2.2282 1.2918 2.7974 -0.5574 1.2016 1.4484 -1.2401 -1.5944 -0.5700 -1.4034 3.3324 3.7649 -1.5988 -1.7934 -2.2508 0.3969 -2.9940 -4.2544 1.9636 4.5600 4.5213 -1.1879 -3.5665 -5.3210 2.8298
3.3383 1.4877 -3.7746 5.1257 1.1635 -2.1105 -1.4864 0.9713 -0.5627 3.9564 6.1576 0.4773 5.1420 5.1304 -1.0317 3.4787 6.4077 -1.6322 -5.7081 -4.3923 3.6908 -5.3123 -6.1094 2.4045 -3.9754 -5.6604 4.0611 0.6743 2.4422 -2.1841 0.4301 -1.7511 0.3752 1.9427 4.3699 0.1244 0.9158 0.6389 -0.7565 3.1950 3.3420 -1.5213 -1.7146 -1.8916 -0.5072 -3.6969 -3.1743 -0.0001 -1.9536 -2.8924 1.6527 -4.4142 -3.9331 0.8502 -2.7175 -3.7163 2.5633 3.6338 1.0865 -2.3446 -0.3828 0.0438 -1.0280 2.8813 1.9325 -1.3259 1.3820 1.7184 -1.4872 -0.4905 -1.2721 -0.2828 2.9184 4.3425 -0.6210 -2.4163 -2.6233 0.4177 -3.9032 -4.2255 2.1834 3.8758 5.4966 -0.7069 -4.7186 -5.0898 3.0765
3.3090 -0.0047 0.5928 3.9103 0.3913 -1.7798 -1.8876 1.5294 0.0436 4.5942 6.3064 -0.9922 5.0154 4.8457 -2.5543 3.4475 6.3268 -2.8437 -5.5626 -5.1654 3.1099 -4.8569 -6.5409 1.5707 -3.6777 -6.2252 3.3713 1.1662 1.9835 -2.2531 0.2390 -1.1163 0.7524 1.8885 5.0175 -0.9411 0.5237 1.4301 -0.0986 3.4005 3.2881 -1.2271 -1.8289 -1.3683 -0.2790 -3.6563 -2.9404 -0.1067 -1.9636 -2.8278 1.6150 -4.2806 -3.9454 0.5376 -2.6288 -3.9121 2.3047 3.7049 1.0323 -0.4266 -0.7005 0.7487 -0.4707 2.7697 2.2308 -0.4493 1.4170 1.8792 -1.0556 -0.6996 -0.6550 0.1072 2.9857 4.5971 -1.2985 -2.4467 -2.3531 0.4519 -3.7399 -4.4669 1.7868 4.0114 5.5050 -1.9200 -4.4533 -5.5905 2.4526
3.2888 -0.2034 -0.5439 4.9103 1.2923 -1.5355 -1.0919 1.3168 1.2991 2.8973 6.3685 -1.6610 4.8110 5.7288 -0.8272 4.6441 6.1885 -2.9481 -3.6559 -6.3339 3.3638 -5.6643 -5.5700 2.9961 -4.6642 -6.7685 1.4811 0.5957 3.2123 -0.3519 -0.1120 -1.6124 -0.1932 3.8926 3.6711 -3.2980 0.6830 0.9216 -0.3235 3.0432 3.5377 -1.1511 -2.3333 -1.0415 0.2000 -3.8100 -2.1364 1.7803 -2.4340 -3.4104 0.2482 -4.3168 -3.2704 2.3015 -2.9537 -4.6274 0.8306 3.6728 1.2523 -0.6570 -0.7274 0.7202 -0.0449 2.5897 2.1532 -1.2417 1.2166 2.1695 -0.5635 -0.9847 -0.7702 -0.0032 3.6441 4.1825 -2.2091 -2.8035 -2.2114 0.7338 -3.8712 -4.5697 1.8133 3.9948 5.6084 -1.9053 -4.4610 -5.7981 2.4103
1.9986 2.3830 -4.0463 -0.2432 3.1122 -3.2269 1.3092 -2.0887 -3.4190 3.2184 4.9014 1.9934 4.3882 3.4105 0.9244 4.2119 5.4322 0.1298 -3.3576 -4.9737 4.0837 -4.4726 -3.1161 4.3263 -5.1249 -4.5939 2.8701 2.6201 0.3546 -0.7575 -1.3093 -2.2154 -2.4860 1.2384 4.6931 0.0997 0.9536 0.0488 -2.3171 2.4994 3.0012 -0.8598 -0.6710 -1.4567 -0.3741 -1.4439 -1.7227 1.8868 -2.3578 -3.0808 0.1068 -2.2333 -2.3313 2.7911 -3.2093 -3.7322 1.0773 1.2167 2.9589 -2.8960 0.9263 -1.3856 -2.1379 1.4264 2.3099 -1.5460 1.7678 0.8239 -1.5120 -0.4754 -1.7473 -1.7162 2.2877 4.0652 -0.0121 -1.4982 -2.1198 0.4894 -3.1658 -3.3681 2.3715 3.5229 4.4425 0.7523 -4.0232 -4.0053 3.4046
4.8557 2.6056 -2.1948 3.6845 2.7233 -4.3817 0.7546 -1.8457 -3.5061 0.5997 3.0882 1.7275 2.6663 2.3921 1.6873 2.2413 4.5152 1.8856 -5.0644 -4.4346 3.0766 -3.4254 -4.2529 4.4975 -4.8603 -2.6280 4.2781 3.1768 0.1042 -2.9968 -1.7303 -1.2623 -2.3121 1.4709 4.5734 -0.7807 0.9342 0.3236 -2.4406 2.2743 2.3956 -0.8707 -0.6638 -1.2297 -0.2359 -1.3762 -1.5407 2.0401 -2.5834 -2.5989 0.2331 -2.2052 -2.0829 2.9521 -3.4819 -3.1759 1.2154 3.5602 2.9478 -2.8943 0.6715 -1.0780 -2.2061 2.3343 2.2681 -2.3091 2.2322 0.7852 -2.6052 -0.7174 -1.2005 -1.6213 1.8375 3.5375 -0.2329 -1.5693 -1.8029 0.6214 -3.2999 -2.9467 2.5298 1.8393 3.3800 1.2582 -4.1559 -3.5600 3.5855
0.6956 2.7942 -3.3626 -0.9907 3.0399 -1.5399 1.2095 -1.0691 -2.9535 5.3103 4.4385 0.3137 4.9100 4.6236 -1.8223 4.5602 6.3158 -0.4986 -3.6507 -5.3670 4.2009 -5.4075 -4.3204 3.4400 -4.6701 -6.0953 2.4185 2.8822 0.7910 -0.7329 -1.1594 -2.2093 -2.1796 2.3083 5.0981 0.4611 0.6437 0.4420 -1.1508 2.6956 3.4129 -1.0786 -0.9319 -1.5594 0.0448 -2.4441 -1.9084 1.8785 -1.9064 -3.7139 0.3555 -3.2109 -2.7267 2.6219 -2.7599 -4.5852 1.1343 0.4462 3.2415 -1.9452 0.7870 -0.9518 -1.5049 1.4323 2.7233 -0.9186 1.7548 1.2356 -0.9472 -0.5454 -1.6341 -1.2841 3.0399 4.5183 -0.3366 -1.7775 -2.4173 0.6906 -3.3946 -4.1156 2.2240 4.4480 4.9659 -0.5918 -4.2746 -4.9670 3.0636
-0.1273 2.0210 1.6788 1.8421 3.3433 2.1742 -2.5565 1.3685 -2.2575 3.8132 5.0597 -2.0762 5.6862 4.5771 -1.0752 5.0689 3.4516 -2.8366 -4.1453 -5.1426 3.5910 -3.3539 -6.5080 2.0920 -2.0235 -5.6242 3.5772 1.1425 2.3301 -2.5091 -0.6259 -1.5470 -2.1994 4.5085 2.0489 -0.3588 -0.4361 1.4863 -1.0663 2.6059 3.3502 -0.5791 -2.1049 -0.8619 -0.5256 -3.4074 -1.9728 1.1528 -1.5470 -3.1077 0.1045 -3.6402 -3.0308 1.9506 -1.8095 -4.2553 0.9512 0.8716 2.9780 1.0679 -1.1888 0.7623 -2.0574 1.6169 2.3852 -0.1252 0.7590 2.1063 -1.3611 -1.2653 -0.6779 -1.6104 3.9226 3.0271 -0.8143 -2.3211 -2.0100 0.1861 -2.8107 -4.2234 1.8514 4.6109 4.0281 -1.6962 -3.0850 -5.3622 2.7708
3.1118 1.5184 -3.8339 0.6930 2.1029 -4.0293 1.7844 -2.4232 -1.4931 3.2526 5.4345 1.1871 4.7508 4.7896 -0.2595 3.6505 6.6377 -0.5833 -4.7805 -4.9153 4.1107 -6.0820 -3.9632 2.6467 -5.0343 -5.8006 2.1357 2.6569 1.0554 0.0326 -1.0505 -1.2785 -1.4896 1.3713 5.1684 -1.1506 1.4131 -0.0014 -1.5835 2.7929 3.3492 -1.2495 -0.5000 -1.6993 0.7453 -1.5846 -2.8036 2.6009 -2.6500 -2.6868 0.4337 -2.6302 -3.4881 3.1060 -3.7680 -3.4230 0.9718 1.9885 2.3733 -3.3090 1.2435 -1.2016 -0.7890 1.8376 2.4018 -1.8023 2.0470 1.0979 -1.0367 -0.2319 -1.3931 -0.5818 2.4446 4.6308 -0.8893 -1.5847 -2.4002 1.2024 -3.7656 -3.8227 2.2561 3.5246 5.3591 -0.1411 -4.9008 -4.6187 2.7926
1.3193 0.8622 -4.0656 2.3251 3.0402 -4.4192 2.3753 -2.1171 -0.3255 4.5866 5.0783 -1.0477 3.1111 6.5664 -0.4573 3.7464 5.0396 0.9625 -4.6288 -5.1561 3.9171 -6.0809 -3.8174 2.9911 -5.3808 -5.5738 1.9166 2.6698 1.4603 0.1017 -0.4005 -2.0293 -1.4902 1.1640 4.5195 -0.4022 1.6014 -0.0222 -1.2838 2.7436 3.3935 -1.6669 -0.7802 -1.3449 0.7083 -2.3943 -1.8451 2.4314 -2.1894 -3.2672 0.4873 -3.3977 -2.6044 2.9127 -3.2699 -4.0817 1.0019 2.3070 1.8465 -3.4813 1.3729 -0.9914 -0.2377 1.9188 2.2661 -2.0670 2.1498 1.2077 -0.9854 -0.0182 -1.5302 -0.4363 2.3169 4.3705 -0.7972 -1.7624 -2.1862 1.1651 -3.8650 -3.7672 2.1670 3.4393 5.2546 -0.3422 -4.9790 -4.5712 2.7429
3.5864 0.1994 -1.1057 4.6500 1.1598 0.8945 -2.1121 1.8522 0.5015 4.2874 6.0599 -2.7015 4.8417 3.9903 -3.0800 2.8281 4.6819 -3.5500 -5.1499 -5.4787 3.1187 -4.9004 -6.4226 1.1670 -3.3202 -6.5661 2.6540 1.0024 2.2453 -1.8459 0.0511 -0.7996 0.9522 2.9022 5.2595 -0.4819 0.3153 1.7751 0.3032 3.4542 3.0771 -1.0199 -2.0543 -0.9749 -0.0339 -3.8874 -2.5379 0.1503 -1.8350 -2.8847 1.3812 -4.4138 -3.6655 0.6662 -2.3982 -4.0919 1.9375 3.3323 0.9680 0.1748 -0.9246 1.1366 -0.0992 2.6561 2.3115 -0.0732 1.2594 2.1105 -0.6514 -0.9060 -0.3010 0.3651 3.3508 4.4251 -1.2611 -2.5504 -2.1163 0.5402 -3.6442 -4.4728 1.6052 3.8295 4.7831 -2.6397 -4.2504 -5.7235 2.1317
-0.3681 3.7186 -2.4450 -1.1249 2.9595 -0.1900 0.6612 -0.9358 -3.5016 4.7459 5.2285 -1.6652 5.2546 5.0849 0.4466 5.1955 3.2857 -0.7781 -3.3366 -5.8501 3.7668 -4.5157 -4.0575 4.1662 -5.0677 -5.3845 2.5315 2.5769 1.1263 -2.1208 -1.6119 -1.8369 -2.2594 2.6301 4.7774 0.8125 0.3932 0.5984 -1.6247 2.4339 3.5670 -1.1466 -0.5558 -1.8466 -0.1731 -1.2140 -2.5774 2.0249 -2.4949 -3.2185 0.0755 -2.0143 -3.3101 2.8225 -3.3660 -3.9889 0.9317 0.0239 3.4849 -1.0096 0.5381 -0.7920 -1.9994 1.3101 2.7119 -0.8059 1.4991 1.4279 -1.6065 -0.6840 -1.5281 -1.5169 3.1228 4.2936 -0.2024 -1.4621 -2.5289 0.5921 -3.1348 -4.0498 2.2551 4.5710 4.4695 -0.5531 -4.0055 -4.8292 3.1730
0.0014 1.8014 -3.8082 1.1369 3.9560 -4.0341 2.1386 -1.8587 -1.9765 3.4518 5.1456 1.4227 4.5182 3.7552 0.1326 4.1542 5.7991 -0.5361 -4.3347 -5.6062 3.5583 -5.0940 -3.6568 4.1765 -5.7998 -4.5635 2.3275 3.3270 0.9975 -1.4502 -0.7551 -1.8855 -1.7522 1.2131 4.7292 -0.0554 1.1221 0.2789 -1.3773 2.4851 3.5488 -1.5908 -0.2770 -1.9223 0.5392 -1.4508 -2.5671 2.5261 -2.3657 -3.0937 0.3513 -2.4931 -3.1564 3.1398 -3.5010 -3.7110 1.0114 1.2785 2.5502 -3.4876 1.3623 -1.0759 -0.9405 1.5306 2.5396 -1.9857 2.1241 1.2094 -1.5694 -0.0122 -1.6771 -0.7987 2.2969 4.3437 -0.4824 -1.3864 -2.5189 1.0747 -3.5759 -3.7360 2.3561 3.6003 4.7554 0.1310 -4.6954 -4.3808 3.0982
2.8395 -0.3526 -2.8494 3.3520 1.6083 -4.1843 2.0083 -0.9930 1.7355 2.0675 6.5240 -1.0050 3.5913 5.2419 -0.1270 3.9897 6.2814 -2.0019 -4.7322 -6.2994 2.1581 -5.8956 -4.7341 3.1346 -5.9929 -4.9692 0.9756 2.1582 2.3981 0.4652 -0.4782 -1.1278 -0.6543 1.5962 4.6221 -2.9359 1.7356 0.2838 -0.3019 3.0898 3.2742 -1.7974 -0.8297 -1.3861 1.6386 -2.4315 -2.5834 2.9721 -2.3874 -2.8489 0.5673 -3.4511 -3.4553 3.0738 -3.4885 -3.7782 0.6732 3.2963 1.0833 -2.7612 1.0701 -0.1434 0.9092 2.4093 1.9916 -1.9170 2.1375 1.5900 -0.4648 -0.1431 -0.9508 0.5138 2.4776 4.4691 -2.0951 -1.8686 -2.2750 1.6677 -4.0061 -4.0755 1.8787 3.0325 5.6172 -1.3060 -5.1466 -5.0123 2.0375
-0.0129 2.8087 -3.7678 0.5321 4.5796 -2.1962 0.5913 -1.4598 -4.4108 3.0961 4.1313 2.4087 3.7066 2.1576 1.7148 4.2020 3.9320 0.5435 -3.1587 -4.4595 4.0461 -3.2639 -2.3628 4.6366 -4.8148 -3.2216 3.3700 2.7580 0.5067 -2.1135 -1.5095 -2.2638 -2.7782 0.8712 3.6218 0.9815 0.5273 0.1682 -2.6282 2.1648 2.6242 -0.6717 -0.1822 -2.0779 -0.8633 -0.4884 -2.2910 1.5128 -2.3719 -2.5048 0.0150 -1.2637 -2.5816 2.5736 -3.2098 -2.8059 1.1586 0.9912 3.2368 -2.7203 0.6614 -1.2323 -2.9197 1.1173 2.2270 -1.5879 1.5909 0.8880 -2.1215 -0.4905 -1.8912 -2.2043 1.9454 3.2199 0.5484 -1.0604 -2.2480 0.1755 -2.6841 -2.8457 2.3962 3.2310 3.3599 1.3013 -3.4757 -3.2157 3.6010
3.8939 1.9700 -4.7213 4.3526 3.9011 -3.3007 -0.0693 -1.4707 -2.7791 0.9640 3.8967 1.2299 2.9975 3.1243 1.3713 2.6615 5.2532 1.0628 -6.0675 -3.6493 2.9315 -4.7294 -5.2248 3.6092 -4.7298 -3.2926 4.6152 3.2356 -0.1914 -2.6672 -0.4534 0.1800 0.2581 1.7334 4.6820 -1.5237 1.1326 0.4380 -1.9252 2.7994 2.6540 -1.1650 -0.6659 -2.1206 -0.0426 -1.5955 -3.7656 1.4384 -2.7725 -1.6956 1.0169 -2.5959 -4.2105 2.2206 -3.8337 -2.1596 1.8935 3.9923 2.4310 -3.2847 0.6784 -0.8954 -1.5974 2.6964 2.1666 -2.5258 2.4198 0.6795 -2.3761 -0.2224 -0.8469 -0.3742 2.2120 3.8375 -0.7710 -1.6707 -2.4464 0.8295 -3.7649 -3.3777 2.4651 2.2141 4.0187 0.7164 -4.8125 -3.8855 3.3956
4.4982 0.9861 -0.0094 3.0084 -0.4027 -1.4509 -0.1099 0.7392 2.7209 2.6676 6.3543 -2.3666 4.4883 5.5257 -1.4987 4.2573 5.6184 -3.6611 -4.4360 -6.2586 2.7756 -5.8337 -5.6123 1.2294 -4.0143 -6.6709 0.6782 1.3565 3.2644 0.6827 -0.2206 -0.9848 -0.3524 2.3929 3.5813 -3.5411 1.2064 0.9768 0.7024 3.0522 3.3415 -1.3372 -1.9798 -0.6923 1.1354 -3.8349 -2.0478 1.8573 -1.9285 -3.0518 0.7555 -4.4413 -3.2457 1.9534 -2.5831 -4.3368 0.8475 3.5291 0.9809 -1.1625 -0.1414 0.8496 1.2127 2.4491 2.0417 -1.1038 1.6517 2.1757 0.1904 -0.7397 -0.3928 0.5916 2.9473 4.0116 -2.5332 -2.5223 -1.9456 1.2398 -3.7947 -4.4389 1.4226 3.5901 5.3680 -2.5047 -4.5147 -5.7340 1.5261
2.0021 1.7260 -3.8981 -0.2585 2.4692 -3.1371 1.8660 -2.0055 -1.4292 4.0085 6.2193 0.4968 4.9883 4.4719 -0.3518 4.4965 6.1721 -1.6266 -4.6239 -5.6247 3.8392 -5.8910 -3.9535 3.2641 -5.5675 -5.6024 1.8756 2.9161 1.2662 -0.0306 -1.1867 -0.7177 -0.8849 1.6528 5.4496 -0.7329 1.2227 0.3177 -1.2729 2.8038 3.5604 -1.4254 -0.3587 -2.3724 0.5370 -1.3755 -4.1477 1.8048 -2.7275 -2.3544 0.9146 -2.4567 -4.7184 2.3681 -3.8952 -2.9797 1.5021 1.2290 2.6552 -2.9985 1.1999 -0.9487 -0.5768 1.6673 2.6802 -1.5513 2.0370 1.3598 -0.8859 -0.2530 -1.3154 -0.3563 2.6981 4.8284 -0.9001 -1.5121 -2.9203 1.0359 -3.7732 -4.1127 2.2186 4.0425 5.4153 -0.5958 -4.9511 -4.8176 2.7971
-0.7789 2.3499 -2.5682 -0.0097 4.5281 -1.8490 1.0105 -2.1306 -2.3742 5.2553 4.5187 0.1264 4.6947 4.9979 -1.9261 4.1586 6.3507 -0.3055 -5.3625 -5.5875 2.1431 -4.1738 -5.4957 3.9716 -5.5008 -3.8491 3.4488 3.1836 0.8603 -1.5659 -0.8614 -0.2000 -0.0964 2.2677 4.5443 0.5731 1.0093 0.2412 -1.9169 2.6733 3.4065 -1.4002 -0.2988 -2.4490 0.1253 -1.3025 -4.3363 1.2316 -2.5041 -2.2450 1.0266 -2.3346 -4.8933 1.8922 -3.6083 -2.8369 1.7452 0.4655 3.1797 -2.3607 1.0416 -1.0660 -1.3009 1.4728 2.5803 -1.3840 1.9955 1.1689 -1.6670 -0.1672 -1.1694 -0.3947 2.9655 4.3181 -0.4120 -1.3909 -2.9574 0.7750 -3.5304 -4.1097 2.1729 4.2622 5.0378 -0.6394 -4.6323 -4.7565 2.9292
1.4854 4.0728 -4.0148 -0.7358 4.0984 -2.8995 0.2715 -1.3992 -3.0325 4.8622 4.3578 -0.1989 4.1736 3.8323 1.8012 4.5146 2.2686 0.3256 -4.7133 -5.4142 2.9934 -3.5699 -4.4229 4.5624 -5.2405 -3.3945 3.6270 1.5844 1.3026 -3.5621 1.3180 -2.0617 0.2280 1.7750 4.3050 0.6454 0.6233 0.5484 -1.5945 2.4349 3.0693 -1.2080 -0.8849 -1.7159 -0.4630 -3.0581 -2.3249 0.3315 -1.0803 -3.1931 1.4192 -3.8544 -2.9295 1.2312 -1.9372 -3.8355 2.3960 0.7546 4.0246 -2.6944 0.9298 -0.8485 -1.7872 1.1271 2.8761 -1.7804 1.1533 1.5134 -2.4324 0.4904 -1.6056 -0.5576 2.6184 3.6695 0.0204 -1.6128 -2.4304 0.4470 -3.2722 -3.6719 2.3396 4.0346 3.5284 0.4857 -4.1922 -4.2196 3.3716
2.5472 4.1029 -3.1996 0.2063 4.8394 -2.7944 -0.3244 -0.8622 -4.1284 2.5825 0.9261 2.1509 4.1131 1.4638 0.6942 3.6443 2.8178 2.3303 -2.4954 -4.1603 4.3179 -3.1151 -2.0887 4.5568 -4.4671 -3.5341 3.6420 1.3040 1.7206 -3.8420 0.5576 -2.9659 -1.8565 1.2218 3.4167 1.1203 0.3483 0.4688 -2.1776 2.0747 2.3134 -0.7237 -1.1896 -1.5229 -1.3146 -2.6848 -1.2157 0.5340 -1.1040 -3.0474 0.5085 -3.1778 -1.6330 1.7132 -1.6239 -3.4912 1.7816 1.3875 4.0905 -2.2311 0.5010 -0.8006 -2.8585 1.0380 2.7270 -1.6523 0.9268 1.6130 -2.6785 -0.0045 -1.8764 -1.9373 2.0281 2.6392 0.6142 -1.5950 -1.9457 -0.0845 -2.6211 -2.8077 2.3715 3.0890 1.9614 1.4333 -3.1677 -3.1487 3.7103

>  <OB_ATOM_TYPES> (1eleA1)
C.3 C.3 C.3 F F F F F F O.2 O.2 O.2 N.am N.am N.am C.ar C.ar C.ar C.ar C.3 C.3 C.3 C.2 C.2 C.2 C.ar C.ar C.3 C.3

>  <ENSEMBLE_RMSD> (1eleA1)
0.000 1.408 1.416 1.441 1.442 1.455 1.466 1.478 1.485 1.543 1.625 1.781 1.783 1.825 1.859 1.878 1.928 1.944 1.964 2.039 2.039 2.058 2.063 2.085 2.086 2.120 2.151 2.163 2.164 2.178 2.256 2.257 2.274 2.342 2.384 2.450 2.466 2.478 2.537 2.582 2.599 2.606 2.660 2.679 2.682 2.708 2.730 2.781 2.834 2.838

$$$$
