
 OpenBabel03071213D

 30 32  0  0  0  0  0  0  0  0999 V2000
  -37.9910  -27.0020   49.1120 C   0  0  0  0  0
  -43.2710  -31.1830   40.0910 N   0  0  0  0  0
  -42.9010  -28.8790   39.9540 N   0  0  0  0  0
  -38.3260  -28.8700   43.7610 O   0  0  0  0  0
  -37.5670  -33.0380   45.9630 O   0  0  0  0  0
  -35.2930  -32.2310   45.6030 O   0  0  0  0  0
  -34.1730  -26.5800   43.8280 C   0  0  0  0  0
  -34.0980  -28.0400   44.0820 C   0  0  0  0  0
  -35.6080  -26.2610   44.0440 C   0  0  0  0  0
  -34.8190  -28.7220   42.9610 C   0  0  0  0  0
  -36.4020  -26.9490   42.9930 C   0  0  0  0  0
  -37.0310  -31.0440   41.6140 C   0  0  0  0  0
  -37.3900  -31.6250   43.9840 N   0  0  0  0  0
  -36.3700  -28.3550   47.7050 C   0  0  0  0  0
  -38.6240  -29.1290   47.9200 C   0  0  0  0  0
  -38.8130  -29.6390   40.5400 C   0  0  0  0  0
  -39.4130  -31.7560   41.4420 C   0  0  0  0  0
  -40.1270  -29.4150   40.1870 C   0  0  0  0  0
  -40.7170  -31.5230   41.0790 C   0  0  0  0  0
  -36.0410  -29.5090   46.9620 C   0  0  0  0  0
  -38.3210  -30.2260   47.1230 C   0  0  0  0  0
  -36.7880  -30.6760   43.0800 C   0  0  0  0  0
  -36.1900  -28.3530   43.2180 N   0  0  0  0  0
  -42.4470  -30.1280   40.1580 C   0  0  0  0  0
  -37.6490  -28.1800   48.1990 C   0  0  0  0  0
  -37.1850  -29.2170   43.3640 C   0  0  0  0  0
  -38.4570  -30.8170   41.1570 C   0  0  0  0  0
  -41.1020  -30.3450   40.4600 C   0  0  0  0  0
  -37.0370  -30.4170   46.6250 C   0  0  0  0  0
  -36.7260  -31.8490   45.4930 S   0  0  0  0  0
  1 25  1  0  0  0
  2 24  1  0  0  0
  3 24  2  0  0  0
  4 26  2  0  0  0
  5 30  2  0  0  0
  6 30  2  0  0  0
  7  8  1  0  0  0
  7  9  1  0  0  0
  8 10  1  0  0  0
  9 11  1  0  0  0
 10 23  1  0  0  0
 11 23  1  0  0  0
 12 22  1  0  0  0
 12 27  1  0  0  0
 13 22  1  0  0  0
 13 30  1  0  0  0
 14 20  1  0  0  0
 14 25  2  0  0  0
 15 21  2  0  0  0
 15 25  1  0  0  0
 16 18  1  0  0  0
 16 27  2  0  0  0
 17 19  2  0  0  0
 17 27  1  0  0  0
 18 28  2  0  0  0
 19 28  1  0  0  0
 20 29  2  0  0  0
 21 29  1  0  0  0
 22 26  1  0  0  0
 23 26  1  0  0  0
 24 28  1  0  0  0
 29 30  1  0  0  0
M  END
>  <MOLID> (1ettB1)
1ettB1

>  <SMILES_CANONICAL> (1ettB1)
Cc1ccc(cc1)S(=O)(=O)N[C@H](C(=O)N1CCCCC1)Cc1ccc(cc1)C(=N)N	

>  <FINGERPRINT> (1ettB1)
0000000000000000000000001101000000100001100000000001001000000000000000010001000000000001000000000000000110110001000001100000000000000000000010001000000000001000000000000000000000000000000000000000000000000011000000000000000000100000000000000001000000000000000000000000000000001001000000000000000001001000000010001100001100001000001100000010000000000000011100000000000110111000000000001000010000000000100010000000001100000000000000000000000000000001100000000010000000000000000000000000000000001100100000000000000000000000000000000010000000000000000000100000000000000000000000000000000001100000000000000000100000000000000000000110011000000001100000000000010000000001000000000011100000000100100001100000000100000000000000000000000000000001101110110101000000000000001110000000001000000000000010000000000010000000000000000000000000000100010000000000000000000000000000000001000000000000000000000010110000001100000000000000010000001000001000000000011000000000000010110100000000000100000000000000001000000000000000010010011001100000

>  <MACCS166> (1ettB1)
000000000000000000000000000000011000010000100000011000100111100100100000101111101001110100110110011001010100011100001111110110011110000111011100111110101111011110111000

>  <OB_MW> (1ettB1)
428.188

>  <OB_logP> (1ettB1)
4.3908

>  <OB_PSA> (1ettB1)
124.73

>  <OB_MR> (1ettB1)
121.601

>  <OB_ATOMIC_CHARGES> (1ettB1)
0.0310276647 0.2047061662 0.2047061662 -0.2732928615 -0.1515840377 -0.1515840377 0.0035128278 0.0215609096 0.0215609096 0.0934387122 0.0934387122 0.0550032487 -0.0695998927 -0.0028855246 -0.0028855246 -0.0039525315 -0.0039525315 0.0076706141 0.0076706141 0.0196333983 0.0196333983 0.1779505182 -0.2783620131 0.476608146 -0.0217694661 0.2437199712 -0.0202178372 0.0974576835 0.1235428911 0.077243706

>  <MCT_HBD> (1ettB1)
3

>  <MCT_HBA> (1ettB1)
7

>  <ENSEMBLE_TOTAL> (1ettB1)
50

>  <ENSEMBLE_COORDS> (1ettB1)
0.9109 2.6917 5.1037 -5.1557 -0.7420 -3.9528 -4.3125 1.4415 -3.8262 3.3383 -0.1894 -0.5832 -0.5041 -2.7653 1.6959 1.6689 -3.4457 2.7379 0.1099 3.5254 -0.8356 -0.5920 2.2021 -0.6024 1.5473 3.3118 -1.2697 0.1843 1.3444 0.3768 2.2929 2.4332 -0.2843 0.9782 -1.6883 -1.7580 1.6895 -2.2055 0.5137 -0.2230 0.6526 4.2600 2.1178 0.9813 3.7301 -0.3935 -0.2217 -3.2276 -1.5217 -1.9045 -1.8953 -1.6918 0.2303 -3.6996 -2.7258 -1.4615 -2.2994 -0.1821 -0.5896 3.5096 2.1553 -0.1817 3.0551 1.1420 -1.1474 -0.3546 1.5629 1.2066 -0.0549 -4.1368 0.1554 -3.6934 0.8822 1.4113 4.3585 2.1437 -0.0170 -0.3479 -0.3118 -1.2349 -2.3451 -2.8126 -0.3468 -3.2279 0.9560 -0.9842 2.9065 0.8834 -2.4621 2.0103
-2.6255 1.9025 3.7328 -5.6248 -0.8521 -2.1649 -5.0161 1.3790 -1.8008 3.8651 -1.1271 -0.9186 0.8957 -3.4343 2.2924 2.7150 -1.7209 2.3613 2.9295 3.7982 -0.9675 1.6460 3.0137 -0.7787 4.0301 2.9365 -1.5539 1.8926 1.7474 0.0170 4.2188 1.6570 -0.7627 0.9415 -1.2002 -1.9659 1.5346 -2.2100 0.1623 -0.3916 0.8323 3.8439 -1.9823 0.0276 2.2027 -0.9030 0.4297 -2.3387 -1.4655 -1.8715 -1.8177 -2.3213 0.7402 -2.3435 -2.7776 -1.5776 -1.7912 0.5571 -0.1501 3.3543 -1.0963 -0.8790 1.7511 1.4857 -0.9349 -0.5773 2.9507 0.9793 -0.6087 -4.6714 0.1368 -2.0064 -1.6119 0.9185 3.2875 2.8965 -0.4029 -0.6974 -0.4916 -0.8202 -2.0592 -3.2217 -0.2175 -2.0532 0.2322 -0.9606 2.3289 1.4096 -2.1400 1.8722
1.4107 2.1770 5.4427 -5.6461 -0.4734 -3.3913 -4.9218 -2.4493 -4.4156 3.3827 -0.3850 -0.3416 -1.3825 -1.7820 0.9291 0.2801 -3.3307 1.9731 2.4814 4.2453 -0.0885 1.3605 3.4737 -0.7572 3.6751 3.3426 0.1607 0.9810 2.2670 0.0760 3.2716 2.1278 0.9755 0.8155 -0.5672 -2.0323 1.0243 -1.7884 0.0818 1.9270 0.1090 4.1675 -0.1995 1.2118 3.7942 -1.1102 -2.0335 -2.5696 -1.4380 0.3639 -2.7135 -2.4928 -2.2185 -2.9657 -2.7092 0.1941 -3.1260 1.5399 -0.8978 3.1941 -0.5615 0.2706 2.9058 0.9816 -0.4473 -0.5334 2.1479 1.4540 0.3596 -4.6565 -1.3828 -3.7107 1.0887 1.1208 4.4541 2.3072 0.1930 -0.1963 -0.6048 -0.7946 -2.4245 -3.2549 -1.1486 -3.2554 0.3356 -0.8245 2.5956 -0.0330 -2.0271 1.4118
1.7209 2.7975 4.9099 -5.1292 0.7925 -3.9812 -5.4336 -1.5308 -3.9969 3.3810 -0.7677 -0.6950 -1.2369 -1.8608 1.2962 0.4691 -3.2241 2.5241 1.6724 3.6186 0.9610 3.0175 2.9211 1.0237 0.5413 2.6393 0.7188 3.2453 2.0116 -0.1682 0.8167 1.7871 -0.5025 0.7248 -1.4955 -2.0038 1.1202 -2.1045 0.3229 0.0181 1.2561 3.9747 2.3602 0.7567 3.6067 -1.6988 -2.0267 -2.0243 -0.9308 -0.1100 -3.2977 -3.0507 -1.7370 -2.4581 -2.1789 0.1328 -3.7409 -0.3186 0.0845 3.1870 2.0420 -0.3252 2.8738 0.9829 -0.9702 -0.6105 2.1071 1.1419 -0.3660 -4.6706 -0.4946 -3.7781 1.3073 1.5843 4.1665 2.2891 -0.2132 -0.5860 -0.6816 -1.2350 -2.4096 -3.2756 -0.7180 -3.3069 0.6529 -0.6609 2.6264 0.1367 -2.0501 1.7342
-2.5531 1.9733 3.7355 -5.7737 -0.9141 -3.0084 -5.4492 0.6884 -1.3252 3.7402 -0.8578 -1.3957 1.2490 -3.1337 2.1907 2.9117 -1.2774 2.0033 3.6138 3.0770 0.8428 2.3012 2.3294 0.9741 4.6040 2.2974 -0.0027 1.7512 1.9645 -0.3910 3.9967 1.9245 -1.3436 0.7314 -1.1485 -2.1560 1.5844 -1.9849 -0.0463 -0.2430 1.0762 3.6808 -1.9073 0.0704 2.2357 -1.6123 -1.9595 -2.3161 -1.2393 0.4045 -1.9208 -3.0431 -1.7056 -2.2966 -2.5621 0.6445 -1.9096 0.7313 0.1435 3.1455 -0.9968 -0.7853 1.7361 1.3918 -0.7615 -0.8479 2.7399 1.2268 -1.1557 -4.9637 -0.2130 -2.1343 -1.5110 1.0451 3.2361 2.7543 -0.1673 -1.1413 -0.7438 -0.9496 -2.1192 -3.4948 -0.4522 -2.1086 0.3833 -0.7275 2.1787 1.6091 -1.8278 1.6599
1.1692 2.7452 5.1355 -4.3782 1.3583 -4.3010 -5.1431 -0.8475 -4.1020 3.2692 -0.3231 -0.6316 -0.6528 -2.6477 1.8116 1.4908 -3.4518 2.8265 0.4092 3.5757 -0.8906 -0.3973 2.3021 -0.7361 1.8643 3.2625 -1.1816 0.2150 1.4076 0.3228 2.4479 2.3381 -0.1301 0.8149 -1.7128 -1.6701 1.5539 -2.2265 0.5910 -0.1087 0.7784 4.3255 2.2384 0.9527 3.7511 -1.6720 -1.7752 -1.7789 -0.4838 -0.2763 -3.2705 -2.9214 -1.3008 -2.3452 -1.6394 0.1406 -3.8212 -0.1600 -0.4715 3.5896 2.1902 -0.2189 3.0913 1.0392 -1.1553 -0.2827 1.6166 1.1655 0.0335 -4.2003 0.0388 -3.9317 1.0439 1.4663 4.3962 2.1020 -0.0835 -0.3265 -0.5002 -1.2718 -2.2094 -2.9029 -0.3950 -3.3401 0.9396 -0.9453 2.9731 0.7556 -2.4285 2.1014
-2.2544 1.7102 4.5882 -5.2945 1.0725 -2.0490 -5.4081 -0.7902 -3.4621 3.7643 -0.9986 -0.8762 0.8814 -3.4507 2.2524 2.7887 -1.8463 2.2450 2.6598 3.8256 -1.0186 1.4167 2.9776 -0.8356 3.8358 2.9838 -1.4753 1.6893 1.8182 0.1021 4.0633 1.7981 -0.5568 0.9155 -1.0907 -1.9782 1.4098 -2.1575 0.1412 -1.8418 -0.3141 3.2114 0.0421 1.0827 3.8169 -1.3925 -1.8343 -2.4855 -1.0337 0.5031 -1.9501 -2.8061 -1.5470 -2.6488 -2.3408 0.7735 -2.1113 -0.9199 -1.1975 2.5188 0.8912 0.2584 3.1780 1.3798 -0.8586 -0.5551 2.8330 1.0608 -0.3666 -4.7123 -0.0113 -2.6794 -1.3757 0.7755 3.8460 2.7868 -0.3025 -0.6067 -0.5428 -0.8531 -2.1319 -3.2601 -0.2910 -2.4802 0.4022 -0.9364 2.5162 1.4232 -2.1602 1.8510
-2.7933 1.5783 4.1843 -5.4096 -0.5183 -3.3874 -5.1929 0.9581 -1.5767 3.8574 -1.0815 -0.9463 0.8939 -3.3655 2.2823 2.7022 -1.6510 2.3523 2.9311 3.7261 -1.2716 1.6688 2.9443 -0.9645 4.0439 2.8035 -1.7289 1.9442 1.8452 0.0436 4.2856 1.6988 -0.7190 0.9611 -1.0924 -1.9518 1.4935 -2.1088 0.1804 -1.8681 0.2290 2.3173 -0.6064 0.3806 4.3817 -1.3858 -1.8006 -2.3451 -0.9550 0.5295 -1.8244 -2.8013 -1.4857 -2.4393 -2.2625 0.8256 -1.9176 -0.8292 -0.6362 1.7840 0.3608 -0.4067 3.8788 1.4925 -0.8327 -0.5567 3.0466 1.0173 -0.4083 -4.6643 0.0895 -2.3947 -1.7593 0.7154 3.5663 2.9194 -0.3385 -0.6607 -0.5002 -0.8346 -2.0392 -3.2167 -0.2204 -2.2453 0.2605 -0.9151 2.5234 1.3831 -2.0533 1.8832
-3.2110 0.9314 3.6765 -5.3251 0.5880 -1.8427 -4.0012 2.2758 -2.7881 3.6695 -1.1139 -1.5019 2.0174 -3.1054 2.9516 2.9992 -0.8464 2.5651 1.8750 3.5165 -1.7538 0.9044 2.5768 -1.0668 2.9424 2.7515 -2.5133 1.6520 1.5993 -0.1845 3.6283 1.7151 -1.6423 0.7570 -1.8824 -1.4111 2.0605 -2.1684 0.6065 -0.9459 0.9021 2.6670 -1.7495 -1.1025 3.7606 -0.6742 -0.4020 -2.7936 -1.5799 -1.2722 -0.7165 -1.9086 0.3361 -2.9854 -2.7052 -0.5512 -0.8681 0.2768 0.1895 2.3503 -0.6198 -1.7612 3.4434 1.5572 -1.1650 -0.3455 2.6473 0.8955 -0.9657 -4.1040 1.0935 -2.2456 -1.9236 0.2769 3.3442 2.7507 -0.4856 -0.9792 -0.5094 -1.1600 -1.6944 -2.8692 0.2865 -2.0444 0.4367 -1.1019 2.6994 1.9522 -1.8163 2.2783
-3.3313 1.4280 3.1089 -5.5450 -0.7610 -1.7356 -4.8746 1.4403 -1.3189 3.9147 -1.0339 -1.4395 1.0476 -3.3003 2.2803 2.6542 -1.3979 2.4437 2.8935 3.7410 -0.8242 1.7433 2.8628 -0.3714 3.8835 2.9485 -1.6555 2.2564 1.6439 0.3709 4.3620 1.7180 -0.9091 1.0121 -1.2203 -1.9621 1.7743 -2.0980 0.1714 -2.1982 -0.3785 1.8426 -0.9168 0.8702 3.4742 -0.8027 0.4848 -2.0103 -1.4064 -1.8634 -1.9448 -2.2110 0.8174 -1.9103 -2.7118 -1.5554 -1.8411 -1.0102 -1.1650 1.5659 0.1826 0.1435 3.2052 1.6529 -0.8702 -0.6358 3.2375 0.9406 -0.4339 -4.5648 0.2062 -1.6128 -2.1528 0.5987 2.7635 3.0524 -0.3576 -0.8808 -0.4133 -0.8031 -1.9909 -3.1294 -0.1615 -1.8055 0.1462 -0.9068 2.2064 1.4553 -1.9709 1.8494
3.2043 2.5949 5.2087 -3.3331 -0.3938 -6.5371 -1.0322 0.0501 -6.4400 -1.7776 0.6984 1.8453 1.1238 -3.2415 3.0301 1.8836 -2.2207 0.8697 1.9448 2.8139 -0.6232 1.7637 1.3600 -1.0110 1.2036 3.1310 0.6619 0.2901 1.0317 -1.1165 -0.2564 2.7283 0.5795 -1.9902 -1.5736 -0.2111 -0.5108 -1.7867 1.7022 3.4767 0.7913 3.5279 1.3624 0.9780 4.6970 -3.1055 -0.5586 -2.1877 -0.9791 -1.6735 -2.5213 -3.1165 -0.2224 -3.6026 -0.9765 -1.3464 -3.8256 2.9304 -0.3331 2.7905 0.8616 -0.0648 4.0107 -0.7606 -1.0027 0.4730 -0.3781 1.3606 0.1264 -2.1420 -0.2913 -5.8437 2.7183 1.4265 4.4377 -1.0367 0.4229 0.9032 -2.0692 -1.2387 -1.6612 -2.0886 -0.5978 -4.3861 1.6583 -0.7254 2.9940 1.1312 -2.1166 2.1092
-3.4936 0.0846 4.4316 -4.3710 1.7967 -3.5464 -5.4916 0.5343 -1.9207 3.4216 -1.2473 -1.6786 2.6925 -1.8560 3.0789 2.6015 0.3879 2.0017 3.6634 3.1946 -0.9836 2.5682 2.5708 -0.1411 4.3538 2.1551 -1.8465 1.6077 1.7715 -1.0008 3.3435 1.3722 -2.6666 0.4898 -1.9292 -1.2431 1.9351 -1.6954 0.6751 -1.6641 0.5693 2.8190 -1.3188 -1.1487 4.4895 -1.0146 -0.8480 -2.8925 -1.8065 -1.1304 -0.6165 -2.2548 -0.1620 -3.2049 -2.9333 -0.4498 -0.8903 -0.3377 0.2805 2.2964 -0.0983 -1.4202 3.9943 1.3558 -0.9606 -0.4639 2.3265 0.8017 -1.8055 -4.3969 0.8144 -2.5740 -2.1380 -0.1250 3.8686 2.4981 -0.5050 -1.3493 -0.7902 -1.2922 -1.6426 -3.1623 0.0533 -2.2350 0.4123 -0.6953 2.8454 2.0020 -0.9219 2.2013
-3.3793 1.5160 2.7981 -4.8562 1.5874 -1.0703 -5.4486 -0.6369 -1.5242 3.9544 -1.0398 -1.3908 0.9855 -3.4370 2.1244 2.4536 -1.4615 2.5269 3.1462 3.7387 -0.9863 1.9108 2.9169 -0.6775 4.2192 2.8735 -1.6197 2.2782 1.7522 0.2181 4.5323 1.6587 -0.7648 1.0249 -1.1134 -1.9330 1.7942 -2.0804 0.1516 -0.9643 1.1413 2.3850 -2.4210 -0.7859 2.5521 -0.8823 0.4217 -2.3538 -1.3270 -1.7201 -1.3026 -2.2895 0.7471 -2.2101 -2.6200 -1.3993 -1.1202 0.1403 0.2353 2.1372 -1.3902 -1.6190 2.3213 1.6902 -0.8189 -0.6052 3.3212 0.9551 -0.3959 -4.5324 0.2826 -1.3918 -2.1997 0.6482 2.5737 3.1024 -0.3371 -0.8488 -0.4155 -0.7528 -1.8932 -3.1119 -0.1135 -1.5835 -0.0592 -1.0959 2.0805 1.3438 -2.0631 1.8025
3.5732 2.3701 5.4514 -1.5129 -1.0053 -6.7898 -3.7731 -0.4483 -6.5523 -1.9698 1.3710 0.8568 0.5973 -2.8949 3.0526 1.5502 -2.0437 0.9094 2.8856 2.3859 0.1251 2.6072 0.9152 -0.1121 1.7877 3.0406 0.9402 1.2238 0.7051 -0.6984 0.4183 2.7759 0.3474 -2.2661 -1.2397 -0.2573 -0.7740 -1.2712 1.6655 1.5769 1.5087 4.2536 3.6340 0.2323 4.1506 -3.3458 -0.3224 -2.3021 -1.4105 -1.7564 -2.5683 -3.4164 -0.2014 -3.7494 -1.4784 -1.6509 -3.9066 0.9412 0.4845 3.4429 3.0468 -0.7034 3.3834 -0.9478 -0.7360 0.2987 0.2352 1.3581 0.1365 -2.6259 -0.7523 -6.0097 2.8695 1.3809 4.6006 -0.9782 0.7675 0.4509 -2.3742 -1.0600 -1.7320 -2.5241 -0.8498 -4.5219 1.6522 -0.5714 3.0059 0.7981 -1.7886 2.1285
-3.0437 1.3161 3.7723 -4.1481 2.1469 -3.2233 -5.3323 0.5388 -1.9962 3.6212 -1.3313 -1.3832 1.8691 -3.0990 3.0948 3.0117 -0.9264 2.6548 2.0450 3.3309 -2.0078 1.0229 2.4876 -1.2721 3.0977 2.4671 -2.6767 1.7101 1.5570 -0.2945 3.7219 1.4797 -1.7080 0.6365 -1.8974 -1.2617 1.9637 -2.2157 0.7309 -0.8010 1.1031 2.7343 -1.7280 -0.8122 3.8896 -1.6241 -1.0731 -0.6166 -0.7415 -0.4881 -2.8004 -2.8208 -0.3155 -0.9308 -1.8679 0.1786 -3.1106 0.3655 0.2995 2.4213 -0.6503 -1.5552 3.5791 1.5061 -1.2048 -0.2364 2.6947 0.7555 -0.9913 -4.2004 1.0031 -2.4498 -1.8106 0.5649 3.4392 2.7294 -0.6269 -0.9133 -0.6157 -1.1366 -1.5054 -2.9445 0.2663 -2.1379 0.4384 -0.9900 2.8051 1.8948 -1.8229 2.3946
-3.6559 0.0425 4.4551 -5.3672 0.3593 -1.5855 -4.4049 1.7583 -3.1973 3.9392 -0.8120 -0.6348 2.2357 -2.5027 3.1981 2.6426 -0.1289 2.5202 2.6560 3.0970 -3.1452 1.4539 2.2464 -2.7867 3.9454 2.3643 -2.8292 1.5173 1.8016 -1.3372 3.9749 1.9069 -1.3820 0.9493 -1.4818 -1.4444 1.8085 -1.8121 0.7916 -1.1982 0.3896 4.3957 -2.1603 -1.3594 3.0223 -0.7465 -0.4450 -2.9469 -1.4114 -1.0392 -0.6985 -2.0670 0.1301 -3.1484 -2.6130 -0.4616 -0.8610 0.1079 0.0294 3.8739 -0.9455 -1.6987 2.5556 1.5595 -0.7808 -0.2405 2.7836 1.1514 -1.0568 -4.2859 0.7887 -2.3324 -2.2901 -0.2713 3.9736 2.8863 -0.1754 -0.6595 -0.4163 -0.9750 -1.7543 -2.9512 0.1524 -2.1331 0.2260 -0.9432 2.9489 1.8273 -1.3307 2.4385
-3.9820 0.9094 2.4135 -5.5698 -0.7586 -0.8751 -4.9037 1.4760 -1.0722 3.9611 -0.9413 -1.4762 1.4822 -2.8505 2.4120 2.4186 -0.5416 2.3244 4.2344 3.1615 0.2747 2.9095 2.5052 0.6160 5.0817 2.2604 -0.6051 2.1926 2.0623 -0.6453 4.3043 1.8126 -1.8310 0.9088 -1.2148 -1.9783 1.8856 -1.7783 0.1671 -1.6083 1.0041 1.6989 -2.3986 -0.9842 2.8331 -1.0182 0.3196 -2.3304 -1.4145 -1.8199 -1.2577 -2.4132 0.6531 -2.1068 -2.6988 -1.4984 -1.0207 -0.3098 0.3692 1.5687 -1.1962 -1.5715 2.6956 1.6663 -0.6729 -0.7837 3.0499 1.2004 -1.4375 -4.6116 0.2050 -1.1281 -2.6152 0.3482 2.3008 3.0222 -0.1817 -1.2435 -0.5311 -0.8563 -1.8942 -3.2133 -0.2071 -1.4494 -0.1106 -0.8843 2.0215 1.4776 -1.5255 1.8090
-3.8824 0.8790 2.6913 -5.5619 -1.0353 -0.9758 -4.9976 1.2359 -0.9577 3.9818 -0.7828 -1.4981 1.4476 -2.9156 2.2964 2.5105 -0.6588 2.3161 4.0717 3.2937 0.3158 2.7793 2.5713 0.6476 4.9562 2.4498 -0.5842 2.0794 2.1225 -0.6209 4.1957 1.9897 -1.8161 0.9327 -1.1484 -2.0212 1.9344 -1.7605 0.0989 -2.3752 -1.0801 2.4846 -1.4625 1.1293 2.0956 -1.0418 0.3507 -2.2379 -1.3676 -1.8913 -1.3704 -2.4479 0.6145 -1.9939 -2.6635 -1.6377 -1.1159 -1.0567 -1.6301 2.2268 -0.2437 0.6128 1.8560 1.6755 -0.6285 -0.8089 2.9721 1.3141 -1.4302 -4.6438 -0.0109 -1.1121 -2.5674 0.2488 2.4274 3.0090 -0.0704 -1.2562 -0.5171 -0.8441 -1.9108 -3.2196 -0.3296 -1.4236 -0.0229 -0.8194 1.9273 1.5257 -1.5684 1.7501
-3.7274 0.0718 4.5628 -4.9731 1.4022 -1.4191 -5.3527 -0.3529 -2.9308 3.9362 -1.0391 -0.7235 2.1542 -2.3531 3.0780 2.4517 0.0255 2.3766 3.2995 3.4958 -2.6335 1.9856 2.7479 -2.5339 4.4803 2.5570 -2.4771 1.9245 1.9375 -1.2539 4.3668 1.7119 -1.2217 0.9517 -1.3127 -1.6099 1.6467 -1.7159 0.6717 -1.8744 -1.5101 4.0974 -1.7572 0.7188 3.1562 -0.7817 0.4358 -2.0052 -1.4766 -1.8793 -1.8334 -2.1719 0.8204 -2.1362 -2.7712 -1.5278 -1.9437 -0.5836 -1.7920 3.4962 -0.5656 0.4483 2.5927 1.5754 -0.6800 -0.3789 3.0750 1.0615 -1.1676 -4.5427 0.3162 -2.1581 -2.4296 -0.2953 3.9481 2.9861 -0.2571 -0.7444 -0.4459 -0.8539 -1.8200 -3.1259 -0.1253 -2.0825 0.0600 -0.8470 2.7833 1.6859 -1.2092 2.3102
-3.3049 0.1854 4.7533 -3.7992 2.1409 -3.7834 -5.0429 1.2311 -2.0208 3.5444 -1.4307 -1.3756 2.6680 -2.2087 3.3019 2.7938 0.0720 2.2994 1.6264 2.8918 -2.7917 0.8776 2.3017 -1.6127 2.5230 1.8547 -3.4397 1.8393 1.6792 -0.6179 3.4519 1.2191 -2.4230 0.5802 -1.9151 -1.0834 1.9365 -1.8931 0.9080 -1.4473 0.5964 3.1532 -1.2473 -1.2292 4.7345 -0.7047 -0.6883 -2.8113 -1.6705 -0.9081 -0.5963 -1.8496 0.1156 -3.1954 -2.7144 -0.1329 -0.9404 -0.1495 0.2270 2.6102 -0.0465 -1.5646 4.2328 1.4678 -1.0539 -0.2092 2.7057 0.7260 -1.2847 -3.9323 1.2856 -2.7046 -1.9761 -0.1106 4.1678 2.6862 -0.6315 -1.0038 -0.6054 -1.1561 -1.5541 -2.8015 0.4054 -2.2891 0.5175 -0.8272 3.1181 2.0738 -1.1819 2.4578
-3.4110 -0.2630 4.7117 -5.2820 0.5387 -1.9707 -3.9901 2.0526 -3.2083 3.7862 -0.9637 -1.2656 2.6466 -2.2087 3.2815 2.7507 0.1296 2.4184 1.6994 3.2044 -2.8781 0.7593 2.4443 -1.9639 2.8574 2.3329 -3.3226 1.5046 1.8282 -0.7949 3.5700 1.7155 -2.1345 0.8327 -1.7672 -1.2056 2.1059 -1.7695 0.8441 -1.4823 -1.7288 4.1706 -1.4230 0.5806 3.4441 -0.6308 -0.5643 -2.8073 -1.5138 -1.0939 -0.6099 -1.8723 0.1269 -3.1054 -2.6497 -0.4224 -0.8703 -0.1738 -1.9147 3.5677 -0.2139 0.4009 2.8821 1.6061 -0.8972 -0.2354 2.6241 1.0394 -1.2724 -4.0722 0.9766 -2.4747 -2.0786 -0.5253 4.1176 2.7978 -0.2995 -0.9568 -0.4475 -1.1246 -1.5978 -2.8267 0.2218 -2.1614 0.4476 -0.8887 2.9528 2.0793 -1.1610 2.4450
-3.5157 -0.0014 4.9699 -5.5766 -0.4445 -2.6525 -4.7730 1.7364 -2.3706 3.8416 -1.2331 -0.8672 2.4573 -2.0496 3.0760 2.3853 0.2841 2.1808 3.0924 3.3916 -2.6994 1.8141 2.8473 -2.0936 4.0624 2.2813 -3.0536 2.1134 1.9244 -0.9285 4.2915 1.3406 -1.8869 0.8249 -1.4687 -1.5615 1.5981 -1.6839 0.7223 -1.2516 -1.0067 4.9066 -2.0154 0.2319 2.9711 -1.6299 -1.8053 -1.5428 -0.7746 0.3687 -2.1909 -2.9756 -1.3016 -1.7505 -2.0193 0.8369 -2.3856 -0.0054 -1.2546 4.2068 -0.8621 -0.0154 2.3219 1.5182 -0.7545 -0.4197 3.0253 0.8822 -1.3572 -4.5534 0.4497 -2.3979 -2.2176 -0.2856 4.3131 2.9252 -0.4131 -0.8675 -0.5724 -0.9963 -1.7346 -3.1623 -0.0329 -2.1595 0.1842 -0.7992 2.9524 1.7710 -1.0285 2.2990
-4.1171 0.3633 3.5593 -5.4462 0.0699 -0.8715 -4.9349 1.2495 -2.8289 3.9632 -1.1275 -0.9355 1.6947 -2.7045 2.9336 2.3434 -0.3227 2.5804 3.8284 2.9592 -2.7511 4.9084 2.0121 -2.2611 2.4499 2.3722 -2.5183 4.6717 1.5939 -0.8187 2.2781 2.0074 -1.0566 0.9862 -1.1055 -1.6268 1.6831 -1.7752 0.5890 -1.8740 0.7551 2.5574 -2.3169 -1.3671 3.6373 -1.4001 -1.4302 -1.0193 -0.8022 0.4748 -2.3970 -2.7839 -1.0022 -1.0785 -2.0838 0.8808 -2.4427 -0.5359 0.2787 2.2401 -1.0804 -1.8036 3.3412 1.6686 -0.6429 -0.3556 3.3233 1.0927 -0.6361 -4.5499 0.4976 -1.8337 -2.7306 -0.0402 3.2227 3.1041 -0.2839 -0.6845 -0.4458 -0.7122 -1.6392 -3.1116 0.1122 -1.7578 -0.1581 -0.9637 2.5996 1.4684 -1.4378 2.2523
3.6111 1.0387 5.9586 -3.4752 -3.8071 -5.2025 -2.1518 -2.3239 -6.4341 -0.7298 3.0676 0.3407 -1.1406 -1.8660 2.6145 0.4709 -1.6544 0.7169 3.8738 1.3095 0.4111 2.9022 0.2368 -0.0395 3.1469 2.4812 1.0397 1.8106 0.8026 -0.9309 2.0831 3.0199 0.1047 -2.2191 0.9468 -0.8211 -1.1443 0.2741 1.2399 1.7082 1.3388 4.3973 2.8704 -0.7876 4.4128 -3.0355 -1.1658 -1.8352 -1.9367 0.4554 -3.2661 -3.1621 -2.0450 -2.9823 -2.0630 -0.3555 -4.3323 0.8116 0.8002 3.3915 2.0441 -1.2781 3.4707 -0.8829 0.7171 -0.1437 1.1933 1.9569 -0.3064 -2.7680 -2.6243 -5.3228 2.6895 0.5689 4.8978 -0.1570 2.0363 -0.0106 -2.4142 0.0203 -1.9638 -2.6878 -1.6617 -4.1823 0.9746 -0.4565 2.9367 -0.2223 -1.0452 1.8406
-4.0748 0.7420 2.4573 -4.6784 1.8104 -0.9852 -5.3026 -0.4401 -1.1590 4.1987 -1.0663 -0.5855 1.2067 -3.2715 2.5368 2.2347 -1.0140 2.8058 3.4054 3.7141 -1.9517 2.1029 3.0588 -1.5375 4.4378 2.6819 -2.3608 2.3389 2.0061 -0.4718 4.6101 1.6095 -1.3024 1.1597 -1.0709 -1.6596 1.8533 -1.9719 0.4760 -1.6424 0.7921 1.9930 -2.6272 -1.2766 2.7817 -0.6674 0.5930 -1.9660 -1.2455 -1.6631 -1.2900 -2.0671 0.9569 -1.8394 -2.5381 -1.3204 -1.1467 -0.3633 0.1123 1.9169 -1.4396 -1.9028 2.6982 1.8174 -0.7401 -0.3340 3.3249 1.0515 -0.9374 -4.3728 0.4762 -1.1848 -2.7309 0.1214 2.4065 3.2425 -0.2928 -0.5955 -0.2675 -0.6565 -1.6675 -2.9630 0.0443 -1.4193 -0.2641 -1.1958 2.2254 1.3117 -1.8876 2.0966
-4.0894 0.6859 3.0112 -5.0804 1.0296 -0.5214 -5.4268 -1.1221 -1.3816 3.9347 -1.1124 -1.2935 1.1972 -3.0727 2.2617 2.3009 -0.8383 2.4140 4.0522 3.7558 -1.3227 2.6510 3.2528 -1.0341 4.9325 2.6307 -1.8296 2.6763 2.0756 -0.0772 4.9411 1.4740 -0.8493 1.0455 -0.6594 -1.9577 1.6288 -1.7622 0.1313 -2.6384 -1.2200 2.3668 -1.6433 0.9797 2.5638 -1.0339 0.7139 -1.9860 -1.2145 -1.6810 -1.6418 -2.4685 0.8174 -1.7815 -2.5355 -1.5821 -1.4143 -1.3204 -1.7493 2.0663 -0.4249 0.4834 2.2832 1.7148 -0.4835 -0.6069 3.5889 1.0517 -0.5502 -4.6221 -0.1279 -1.1223 -2.7895 0.0913 2.6204 3.1881 -0.2395 -0.8510 -0.4270 -0.4820 -1.8777 -3.1814 -0.2813 -1.4706 -0.2468 -0.9355 2.0412 1.2907 -1.6926 1.8094
-4.1659 -0.9314 3.8570 -5.5297 -0.0705 -1.1417 -4.6391 1.7365 -2.3315 3.9304 -1.3674 -1.0678 2.3613 -0.7650 3.1787 1.7117 1.1256 1.6746 4.0031 3.2589 -1.2379 2.5993 2.7541 -0.9657 4.9926 2.1119 -1.3180 2.2007 1.6876 -1.9689 4.5287 1.0723 -2.3219 0.8555 -1.5996 -1.4665 1.8287 -1.2671 0.7356 -2.3184 0.4300 2.9239 -1.8996 -1.9024 3.4445 -0.8765 -0.2506 -2.6344 -1.5049 -1.4944 -0.6451 -2.2237 0.2908 -2.6795 -2.7381 -0.9592 -0.6618 -0.9378 0.5444 2.4894 -0.6228 -1.7921 3.0350 1.6718 -0.6619 -0.6027 3.1897 0.6261 -1.9941 -4.4718 0.5830 -1.7450 -2.7751 -0.7469 3.3850 3.0487 -0.5211 -1.2157 -0.5264 -1.0860 -1.6390 -3.1086 -0.0252 -1.7139 -0.1198 -0.5255 2.5314 1.5359 -0.2549 2.0959
-4.0038 0.5465 3.2841 -5.2401 0.9022 -0.7328 -5.4512 -1.1595 -1.8295 3.9184 -1.0289 -1.3899 1.2641 -3.0991 2.2186 2.3904 -0.8802 2.4167 3.8998 3.7844 -1.4001 2.5399 3.2338 -1.0167 4.7935 2.6769 -1.9239 2.6770 2.0978 -0.0204 4.9126 1.5604 -0.9040 1.0261 -0.5854 -1.9254 1.6709 -1.7334 0.1244 -2.5704 -1.2322 2.3174 -1.5384 0.8565 2.9794 -1.2025 -1.6134 -1.6144 -1.0850 0.7866 -1.9448 -2.6371 -1.4932 -1.4477 -2.4220 0.8950 -1.8291 -1.2538 -1.7265 1.9573 -0.3233 0.3978 2.6288 1.7258 -0.4400 -0.5876 3.6006 1.0904 -0.5081 -4.6984 -0.1972 -1.3704 -2.7017 0.0012 2.8342 3.1889 -0.1819 -0.8747 -0.4518 -0.5142 -1.8089 -3.2234 -0.2877 -1.5582 -0.1638 -0.9509 2.1180 1.3589 -1.7058 1.8075
-4.4706 -0.3925 2.7635 -4.8507 1.3100 -0.4904 -5.2836 -0.4921 -1.9248 4.2625 -0.7700 -0.2796 1.6748 -2.6083 3.0513 2.1155 -0.1602 2.8067 3.5715 3.6144 -2.6270 2.2424 2.9214 -2.4073 4.7092 2.6134 -2.5939 2.2652 2.1266 -1.1162 4.6843 1.7887 -1.3210 1.2031 -0.9391 -1.4854 1.9123 -1.6263 0.7208 -2.5122 -1.9079 2.6304 -2.1587 0.4751 2.3642 -0.6829 0.7001 -1.5454 -1.1881 -1.6701 -1.5318 -2.1066 0.9782 -1.4947 -2.5076 -1.4171 -1.4682 -1.0781 -2.0975 2.5135 -0.8306 0.2936 2.2555 1.8644 -0.4737 -0.2011 3.3773 1.1954 -1.1241 -4.4302 0.2645 -1.2906 -3.0279 -0.6681 2.5718 3.2915 -0.0481 -0.5066 -0.2378 -0.5705 -1.5266 -2.9803 -0.0429 -1.4342 -0.2633 -1.0378 2.3468 1.4351 -1.3593 2.3446
2.8145 -1.4881 5.7033 -4.1589 -3.7449 -3.1709 -2.6875 -3.5126 -4.9803 0.5382 3.6883 0.2188 -2.5606 0.2920 2.5939 -1.5422 -1.0130 0.7255 4.6506 1.3783 -1.3248 4.2618 2.8302 -1.1213 3.4282 0.4931 -1.4688 3.2723 2.9935 0.0170 2.4973 0.6751 -0.2876 -0.8925 1.7000 -1.5200 -1.0828 1.4953 0.9134 1.3347 0.1892 4.6222 1.3423 -2.0797 3.7714 -0.6344 -0.4210 -2.8237 -2.8344 0.2160 -2.0245 -1.2202 -1.6357 -3.3679 -3.3798 -0.9016 -2.5353 0.3382 0.5284 3.6200 0.4248 -1.7608 2.8417 -0.1506 1.4238 -0.2281 2.1640 2.0785 -0.1447 -3.1337 -3.0918 -3.8290 1.8095 -1.0667 4.6988 0.8610 2.5225 -0.0037 -1.4061 0.4563 -2.1547 -2.5405 -1.8617 -3.2321 -0.0965 -0.4097 2.7567 -1.4167 0.0267 1.7348
-4.0892 -1.1377 4.2338 -5.4883 -0.4021 -2.0364 -4.6524 1.7847 -2.0076 4.0179 -1.1199 -0.7414 2.4640 -1.0875 3.4320 1.7675 0.9687 2.1831 3.3816 3.2311 -3.1884 2.0516 2.7199 -2.6730 4.3943 2.1090 -3.2985 2.2285 1.9565 -1.3746 4.5113 1.3322 -2.0010 0.9700 -1.4039 -1.2879 1.8522 -1.3046 0.9708 -1.6434 -1.3136 4.6088 -2.4332 -0.5202 2.4609 -1.4813 -1.7118 -1.1161 -0.6579 0.3572 -2.0715 -2.8329 -1.2038 -1.2637 -1.9092 0.8266 -2.2193 -0.2834 -1.1533 4.1270 -1.1702 -0.3735 2.0222 1.7196 -0.5458 -0.2890 3.2060 0.8987 -1.5470 -4.4419 0.4977 -1.9483 -2.6767 -1.0056 3.8065 3.1103 -0.2941 -0.8370 -0.4325 -0.9470 -1.4692 -3.0387 0.0170 -1.7915 -0.0495 -0.7226 2.8722 1.6060 -0.4519 2.4444
-3.4977 -2.3793 4.2574 -5.4813 -0.6076 -0.5105 -5.1772 0.2574 -2.6646 3.8018 -1.0997 -1.5128 1.5974 1.3215 2.6691 0.2233 1.7709 0.6302 4.9521 3.1904 -0.7219 3.5165 2.9332 -0.3036 5.5840 1.9404 -1.3061 2.7189 2.3346 -1.4487 4.7272 1.3764 -2.4270 0.9660 -1.4229 -1.2884 1.8424 -0.2255 0.6485 -1.1402 -2.0424 3.5517 -2.8039 -0.4188 2.8691 -0.9573 -0.1519 -2.2361 -1.4073 -2.0141 -0.7492 -2.3772 0.1362 -2.2585 -2.7297 -1.7684 -0.7947 -0.1345 -1.2514 2.8633 -1.8694 0.3104 2.2340 1.6911 -0.1792 -0.8205 3.3751 1.1446 -1.9585 -4.6822 -0.3068 -1.5967 -2.4212 -1.6348 3.5623 3.0716 -0.1131 -1.4308 -0.4843 -1.1566 -1.4757 -3.2287 -0.6390 -1.5628 -0.4836 -0.1182 2.2242 0.8083 0.8140 1.5570
-2.8858 -2.6536 5.2974 -4.3042 0.4832 -4.1870 -5.2601 0.3869 -2.0477 3.8570 -0.8802 -0.8820 2.1237 0.9701 3.3236 0.5062 1.6703 1.5556 3.3905 3.3858 -2.6486 2.1686 2.9870 -1.8423 4.4578 2.3089 -2.5824 1.6566 1.6285 -2.2831 3.8936 0.9631 -3.0027 0.8037 -1.4847 -0.5941 2.0321 -0.3432 1.1591 -1.0346 -2.4496 3.6553 -1.9137 -0.4340 4.6742 -0.9255 -1.5615 -2.3710 -1.3792 -0.2337 -0.3958 -2.2032 -1.1301 -2.9113 -2.5317 0.2181 -0.9185 -0.0765 -1.6284 2.9351 -1.0349 0.3247 3.9946 1.6172 -0.2548 -0.2538 2.7166 0.6386 -2.2209 -4.2314 0.2193 -2.8325 -1.9078 -1.8752 4.5012 2.8596 -0.1987 -1.1151 -0.5179 -1.1152 -1.1690 -2.9568 -0.2517 -2.2250 -0.0811 -0.2917 3.0907 1.1613 0.6021 2.2959
-2.8692 -2.7585 5.2880 -4.4812 0.0618 -4.1889 -5.1808 0.6553 -2.0361 3.8585 -0.7434 -0.8705 2.0461 1.0035 3.3451 0.4149 1.6727 1.5791 3.6507 3.3774 -2.6923 2.4914 3.1280 -1.7459 4.5567 2.1625 -2.7704 1.7464 1.8644 -2.1327 3.7622 0.9184 -3.1299 0.8153 -1.4449 -0.6019 2.0039 -0.2877 1.1670 -1.0233 -2.5008 3.6450 -1.9462 -0.5145 4.6826 -0.9034 -1.5337 -2.3863 -1.4061 -0.2655 -0.3849 -2.1892 -1.1259 -2.9242 -2.5720 0.1573 -0.9015 -0.0855 -1.6516 2.9291 -1.0867 0.2697 4.0076 1.5941 -0.1973 -0.2474 2.6578 0.7372 -2.2075 -4.2678 0.1596 -2.8265 -1.9079 -1.9533 4.4977 2.8377 -0.0984 -1.1042 -0.5148 -1.1018 -1.1733 -2.9788 -0.2907 -2.2232 -0.1214 -0.3166 3.0960 1.0985 0.6168 2.3105
-2.7371 -2.6269 5.4973 -5.4051 0.6538 -2.4151 -4.1645 0.6749 -4.3997 3.1332 -1.5105 -1.3932 2.2262 1.0556 3.2747 0.4521 1.6707 1.6148 3.5630 3.2146 -3.0655 2.3599 3.0970 -2.1511 3.9607 1.8670 -3.6334 2.5803 2.0420 -1.0849 4.1328 0.8320 -2.5390 0.4757 -1.4953 -0.4080 1.9357 -0.3958 1.1841 -2.1492 -0.6575 4.1089 -0.4294 -2.2978 4.5796 -0.9056 -1.2564 -2.4553 -1.7832 -0.4025 -0.3610 -2.1030 -0.7722 -3.1175 -2.8752 0.0799 -0.9797 -1.1727 0.0914 3.3391 0.4665 -1.6093 3.8487 1.4145 -0.3275 -0.1955 2.9536 0.7826 -1.7005 -4.2395 0.4228 -3.1214 -1.7890 -1.8052 4.7085 2.6081 -0.4323 -1.1177 -0.7442 -1.0620 -1.1340 -3.0376 -0.1072 -2.4128 0.0824 -0.3750 3.1904 1.1909 0.6493 2.3390
-3.7883 -1.8410 4.1895 -5.3293 0.2015 -2.7634 -5.6021 -0.7600 -0.6460 3.5900 -1.0294 -2.0013 2.0231 0.6723 2.8176 0.7260 1.7662 0.9892 5.2758 2.8739 -0.6807 3.9700 2.5540 0.0205 5.6239 1.8032 -1.6993 2.8715 2.3270 -1.0010 4.4677 1.5446 -2.6528 0.8548 -1.4106 -1.4049 1.9216 -0.4493 0.5454 -1.4391 -2.0082 3.3960 -2.6430 0.0659 3.0498 -1.4690 -1.9045 -0.6773 -1.1063 -0.0941 -2.2497 -2.8944 -1.6307 -0.7393 -2.4204 0.1831 -2.2806 -0.2762 -1.4049 2.7641 -1.5688 0.6179 2.4593 1.6173 -0.2111 -0.8819 3.2467 1.2696 -1.9179 -4.8204 -0.3977 -1.6256 -2.5727 -1.2983 3.5376 2.9318 -0.0597 -1.6253 -0.6098 -1.1637 -1.4011 -3.3501 -0.6212 -1.5050 -0.3438 -0.1442 2.2964 1.1136 0.5495 1.6878
5.0428 -0.1098 3.8757 -1.4726 -0.9536 -6.4529 -0.8838 -2.9969 -5.4710 -1.5267 2.6438 1.3789 -1.2691 -1.9019 3.9710 -0.6808 -2.4877 1.6061 1.5608 3.2855 -1.8334 1.0555 1.8572 -1.8623 0.8994 4.0781 -0.7224 1.1670 1.1986 -0.4995 1.0579 3.3680 0.6102 -2.4405 0.2532 -0.0611 -1.5064 -0.1241 2.1486 3.2756 -1.7077 3.1932 2.6299 0.5585 3.7535 -1.8220 0.6068 -2.4452 -2.2736 -1.6497 -1.6865 -1.4920 0.0711 -3.7533 -2.0142 -2.1443 -2.9106 1.8831 -1.9952 2.9048 1.3400 0.2836 3.4874 -1.1837 0.3377 0.7817 0.5434 2.0161 0.5249 -1.2962 -1.7647 -5.3468 3.6352 -0.4759 3.5922 -0.7720 1.7861 0.9221 -2.1441 -0.2241 -1.4371 -1.5872 -1.2523 -3.9771 0.9499 -1.0294 3.0109 -0.6755 -1.5272 2.6981
3.7408 -1.3153 4.9778 -3.3871 -3.9894 -3.6169 -2.2272 -3.0846 -5.4403 0.6587 3.5553 0.0794 -2.1605 0.7539 3.2883 -1.7844 -0.7380 1.3215 3.8766 0.3354 0.1491 3.8124 1.8517 0.1933 2.4915 -0.2733 0.0432 2.9980 2.4019 -0.9647 1.7403 0.3280 -1.1277 -1.5952 1.8306 -1.1977 -1.0960 1.7158 1.1918 2.1633 0.4190 4.1557 1.7075 -1.9042 3.6439 -3.0668 -0.0750 -1.8105 -1.0186 0.2379 -3.0678 -3.3181 -1.2792 -2.5816 -1.2241 -0.9034 -3.7503 0.9500 0.7811 3.4403 0.5869 -1.5650 2.9824 -0.5506 1.4835 -0.1576 1.6936 1.7742 -1.0048 -2.6828 -2.9652 -4.2230 2.5239 -0.8724 4.2559 0.6479 2.3908 -0.3166 -1.9455 0.6389 -2.0198 -2.4175 -1.6933 -3.4917 0.1939 -0.1733 2.8641 -1.3108 0.3338 2.1843
4.0174 -2.2764 4.9258 -2.8747 -2.2758 -5.8567 -1.2049 -3.5096 -4.7679 -0.6431 3.6060 0.0867 -1.8277 0.3778 3.9955 -1.7575 -1.0584 1.9581 3.6859 1.9675 -1.8445 3.0341 0.8843 -1.0086 3.1356 3.3388 -1.5051 1.5239 0.9585 -1.1008 1.6209 3.3619 -1.5669 -2.1436 1.0839 -0.2602 -0.9138 1.3675 1.8382 2.2519 -0.5334 4.8551 2.1544 -2.3484 3.2543 -2.2790 0.6597 -2.7063 -1.8732 -1.2219 -1.2330 -2.2261 -0.2547 -3.8345 -1.8390 -2.0731 -2.2727 1.0307 -0.0026 4.2751 1.0271 -1.8486 2.7168 -0.7739 1.2184 0.3756 1.0716 2.2935 -0.7591 -2.0208 -2.4913 -4.7913 2.7839 -1.6693 4.3718 -0.1374 2.5017 -0.1101 -2.0972 0.1976 -1.4553 -2.0247 -1.5684 -3.6223 0.4287 -0.6394 3.2514 -1.1295 -0.0457 2.7908
-4.5033 -1.9637 2.5453 -5.3114 -0.1919 -1.4903 -4.4359 1.9617 -1.2209 4.2401 -1.0013 -0.4167 1.8275 -0.6547 3.8192 1.2547 1.2485 2.2951 3.5921 3.0678 -3.3149 2.2831 2.6685 -2.6641 4.5625 1.9041 -3.3603 2.5233 2.0466 -1.3020 4.7354 1.2620 -1.9968 1.1629 -1.2772 -0.9538 2.0486 -0.9818 1.2950 -2.7621 -0.2019 2.4560 -2.0629 -2.5086 2.7064 -0.4719 0.4965 -1.6127 -1.3054 -1.6727 -0.9310 -1.8400 0.9686 -1.6917 -2.5762 -1.2361 -0.9975 -1.3629 0.1821 2.4411 -0.7667 -2.1479 2.6837 1.9473 -0.3607 -0.0389 3.4471 0.9353 -1.4230 -4.2455 0.6779 -1.3602 -3.0972 -1.4973 2.5811 3.3415 -0.1814 -0.5990 -0.2093 -0.7575 -1.2000 -2.8514 0.1449 -1.3612 -0.3976 -0.7530 2.5309 1.2338 -0.1770 2.5813
4.6686 -1.9005 3.2312 -2.1152 -2.3096 -5.9954 -1.4724 -3.9384 -4.4425 -1.1038 3.4623 -0.1476 -1.5617 0.0378 4.0396 -1.7845 -1.2977 1.9384 3.6423 2.6958 0.0667 2.8699 1.5388 0.6638 2.7241 3.8714 -0.2006 1.6910 1.1526 -0.2067 1.5559 3.4565 -1.0746 -2.4234 0.9403 -0.2802 -1.1811 1.1974 1.7994 2.3188 -2.3603 2.5790 2.8486 -0.2128 3.5664 -2.4663 -1.3611 -1.2172 -2.1895 0.5059 -2.7402 -2.3097 -2.2630 -2.3409 -2.0176 -0.3301 -3.7803 0.9421 -1.9182 2.4436 1.5744 0.1969 3.4268 -1.0458 1.1034 0.3315 0.8743 2.3126 -0.5065 -1.8750 -2.7234 -4.6989 3.2375 -1.5342 3.1087 -0.4485 2.4217 -0.1087 -2.3810 -0.0317 -1.4031 -2.0660 -1.7686 -3.5685 0.5863 -0.6743 2.8186 -1.0924 -0.2695 2.6980
1.1083 -4.2507 3.2077 -4.2828 -2.5472 -4.2824 -2.7140 -3.8602 -3.1368 0.9304 3.4973 -1.3805 0.2573 2.1734 3.8361 -1.8264 1.6446 2.5768 4.8934 0.8625 -0.6296 3.7663 0.4587 0.2998 4.5564 2.1492 -1.3575 2.4649 0.3410 -0.4662 3.2340 2.0318 -2.0907 -1.3007 1.9315 -0.5361 0.2592 2.3491 1.3072 1.6687 -1.8323 3.2766 -0.5750 -2.4861 2.6431 -2.1430 0.8471 -2.6102 -1.8546 -0.5181 -0.6285 -2.6131 -0.3351 -3.3135 -2.2959 -1.6119 -1.2712 1.2796 -0.4432 3.0968 -0.9342 -1.1981 2.5010 0.1007 1.7013 -0.0082 2.1952 1.5644 -1.1972 -3.2394 -2.6924 -3.3877 0.7786 -2.8142 3.0497 1.1068 2.3724 -0.9146 -1.7712 0.7578 -1.3199 -2.6971 -1.5107 -2.6636 0.0251 -0.1313 2.7161 -0.3775 1.5495 2.6835
2.3744 -3.5112 3.7730 -3.0859 -4.0998 -2.7406 -2.5870 -3.0976 -4.7991 0.7894 3.7506 -0.9581 -0.9770 2.0119 3.7322 -2.3389 0.8300 2.0126 4.5898 0.7501 -0.5413 3.4168 0.3087 0.3090 4.3718 2.1491 -1.0845 2.1224 0.4164 -0.4693 3.0498 2.2604 -1.8207 -1.5274 1.9838 -0.8694 -0.4017 2.3046 1.2824 2.0837 -1.0840 3.3334 0.1521 -2.5345 3.1636 -2.8400 -0.1155 -1.0729 -1.2232 0.4053 -2.8041 -3.1126 -1.3706 -1.7474 -1.4454 -0.7753 -3.4096 1.2293 0.0385 2.9826 -0.6314 -1.4940 2.8280 -0.2541 1.7639 -0.0809 1.9692 1.7556 -1.0016 -2.7089 -3.0093 -3.5027 1.5639 -2.3207 3.4216 0.8712 2.5478 -0.7152 -1.9175 0.7298 -1.5675 -2.4239 -1.6976 -2.8559 -0.0767 -0.1578 2.7164 -1.0321 1.2612 2.4862
3.4386 -2.9631 3.7921 -2.0703 -2.5624 -5.5750 -2.2402 -3.9971 -3.7295 -0.0376 3.8818 -0.1332 -1.8487 1.0303 3.9566 -2.2924 -0.3595 1.9374 3.8590 1.2737 -1.7094 3.3642 2.6896 -1.9366 2.7400 0.3731 -1.2252 2.6544 3.2396 -0.7139 2.0998 0.9535 0.0182 -1.8048 1.6604 -0.5589 -0.9600 1.8192 1.7248 1.6725 -2.0885 2.2788 1.6861 -1.3673 4.5906 -1.1987 0.5636 -2.7115 -2.6311 -0.6256 -1.1586 -1.2665 -0.5828 -3.6006 -2.7054 -1.6838 -1.9839 0.5212 -1.2301 2.0540 0.6296 -0.5642 4.3728 -0.5754 1.5785 0.3216 1.6535 2.3053 -0.2470 -2.1023 -2.7924 -4.2123 2.2368 -2.1467 3.4978 0.3536 2.7205 -0.0237 -1.8365 0.5335 -1.5269 -1.9969 -1.6583 -3.2523 0.0311 -0.4719 3.0544 -1.3737 0.4711 2.6996
2.7446 -3.9737 2.1331 -1.7958 -3.7361 -3.6613 -2.9152 -2.2290 -5.0600 0.1174 3.9300 -0.1434 -0.7520 1.0951 4.4467 -2.3136 0.2354 2.6963 3.4729 1.1233 -1.9666 2.5422 0.3456 -1.0556 2.9673 2.5387 -2.1727 2.3340 1.0839 0.2528 2.7520 3.2324 -0.8404 -1.6855 1.7724 -0.0818 -0.5505 1.9750 2.0642 0.4819 -2.9560 2.1302 2.3577 -1.6123 2.8696 -2.0024 0.9924 -2.4202 -1.7624 -0.6651 -0.6683 -2.1412 -0.0915 -3.3778 -1.8921 -1.6690 -1.5508 -0.3820 -1.8122 2.3600 1.5533 -0.5540 3.0764 -0.3469 1.6992 0.6262 1.8858 2.4419 0.0103 -2.2810 -2.4730 -3.9460 1.8011 -2.8552 2.3676 0.5504 2.8091 0.1239 -1.8046 0.7154 -1.1186 -2.0977 -1.3703 -2.9578 0.1352 -0.6438 2.7849 -0.9730 0.6513 3.0790
4.3318 -2.6192 4.1508 -0.5176 -2.8258 -4.9669 -2.1279 -1.4175 -5.9274 -0.7536 3.4270 0.2887 -1.4031 0.4901 4.5859 -1.8625 -1.0305 2.6598 2.2923 1.5795 -2.9505 1.7361 2.9511 -2.6220 1.4924 0.4993 -2.2513 1.6780 3.1729 -1.1220 1.4558 0.7441 -0.7556 -2.1945 0.8525 0.1748 -0.9551 1.3290 2.2279 2.5603 -0.9998 4.7742 2.2998 -2.2655 2.7258 -1.9177 -1.2249 -1.1769 -2.1652 0.8947 -2.3320 -1.7228 -1.8668 -2.4649 -1.9424 0.3091 -3.5226 1.2877 -0.3592 4.4966 1.1249 -1.6614 2.4694 -0.8204 1.0702 0.7812 0.9841 2.0856 -0.4642 -1.4507 -1.8092 -4.8830 3.0406 -1.9264 3.9275 -0.2111 2.3265 0.1972 -2.1064 0.1060 -1.1103 -1.7017 -1.1231 -3.5859 0.5836 -0.6823 3.3941 -1.0148 -0.0257 3.2815
2.5572 -3.9842 2.3218 -3.4828 -2.6865 -4.8953 -1.8201 -3.8325 -3.7125 0.0652 3.6716 -0.8051 -0.3135 1.6281 4.2138 -2.1398 0.6374 2.8251 4.4801 1.8007 -0.5657 3.5357 1.1156 0.4005 3.8358 3.0427 -1.1486 2.2115 0.8015 -0.2682 2.5116 2.7043 -1.8063 -1.8293 1.6023 -0.1787 -0.3728 2.1146 1.7125 0.3750 -2.8079 2.4385 2.4052 -1.5171 2.7215 -1.7725 -0.8291 -0.7215 -2.6520 0.7128 -2.3732 -1.9505 -1.9067 -1.6715 -2.8093 -0.2856 -3.2623 -0.3849 -1.5788 2.5787 1.6955 -0.3819 2.8543 -0.4011 1.6016 0.3289 1.6548 1.9905 -0.8833 -2.5699 -2.7742 -3.8619 1.7176 -2.7749 2.4936 0.4485 2.5461 -0.4896 -2.0794 0.4352 -1.0658 -2.4261 -1.6425 -2.9018 0.2489 -0.4032 2.7497 -0.7388 1.0005 2.9725
0.8423 -4.1719 2.9558 -3.1850 -3.9053 -2.4326 -3.4981 -2.7070 -4.4230 1.2163 3.4139 -1.4212 0.0783 2.3332 3.7679 -1.9124 1.7675 2.3778 4.9078 0.4767 -0.4892 3.7392 0.2357 0.4460 4.6934 1.7395 -1.3017 2.4415 0.1811 -0.3342 3.3707 1.6962 -2.0435 -1.1890 2.0778 -0.6832 0.2822 2.4062 1.2392 -0.6177 -2.3049 2.2263 1.3823 -1.7869 3.4926 -2.5480 -0.0009 -0.6357 -1.4572 0.6236 -2.7116 -3.0069 -1.2194 -1.2742 -1.8638 -0.5152 -3.3013 -0.8898 -0.8813 2.1480 1.1288 -0.4688 3.4096 0.1509 1.7333 -0.0666 2.2855 1.3769 -1.1391 -3.1390 -2.7364 -3.1690 0.4817 -2.7375 2.8669 1.2640 2.2886 -0.9264 -1.7830 0.8718 -1.3160 -2.6605 -1.4712 -2.5492 -0.0381 0.0081 2.6934 -0.4767 1.6764 2.5941
3.2191 -3.0762 3.8642 -2.1697 -2.5554 -5.4334 -1.6187 -3.9071 -3.5994 0.2139 3.8506 -0.1987 -1.7180 1.3432 4.0540 -2.3430 -0.0848 2.1096 3.5493 0.7613 -2.1107 3.2320 2.2337 -2.2910 2.3756 0.0241 -1.4975 2.7532 2.8694 -0.9987 1.9769 0.6749 -0.1895 -1.8008 1.7635 -0.4819 -0.8505 1.9702 1.7599 1.4771 -2.1104 2.3810 1.6469 -1.2988 4.6566 -2.4101 -0.5859 -1.0240 -1.4336 0.7878 -2.7675 -2.4101 -1.7062 -1.9439 -1.4035 -0.2577 -3.6145 0.3933 -1.1676 2.1629 0.6551 -0.4160 4.4431 -0.5468 1.6346 0.3574 1.6973 2.0807 -0.4011 -1.8940 -2.7300 -4.0910 2.0811 -2.1700 3.5805 0.4751 2.6534 -0.0931 -1.9203 0.6067 -1.4091 -1.8975 -1.5538 -3.1782 0.0063 -0.3339 3.1483 -1.3358 0.6998 2.8058
0.7932 -4.5072 2.8077 -2.6895 -3.4450 -2.8329 -2.8293 -1.9933 -4.6682 1.7790 3.5984 -0.1085 -0.0275 1.8551 4.4290 -1.8704 1.5068 2.7832 2.7212 0.1471 -3.2108 1.8128 -0.3870 -2.1208 2.9549 1.6379 -3.0686 2.2469 0.0497 -0.7340 3.4432 1.9696 -1.6730 -0.8267 2.2106 -0.1306 0.4461 2.2157 1.9558 -0.5767 -2.5290 2.2101 1.2982 -2.2266 3.7139 -2.2054 0.1728 -0.4764 -1.0502 1.1213 -2.3849 -2.6079 -0.9451 -1.3083 -1.3867 0.0656 -3.1491 -0.8305 -1.1037 2.3030 1.0655 -0.9032 3.7836 0.4324 1.7213 0.5621 2.5048 1.4769 -0.6869 -2.5855 -2.1887 -3.4011 0.4525 -3.0673 2.8860 1.6236 2.3768 -0.1018 -1.4129 1.1378 -0.9765 -2.1758 -1.0160 -2.5801 -0.0336 -0.3118 3.0455 -0.4658 1.3603 3.1327

>  <OB_ATOM_TYPES> (1ettB1)
C.3 N.pl3 N.pl3 O.2 O.2 O.2 C.3 C.3 C.3 C.3 C.3 C.3 N.3 C.ar C.ar C.ar C.ar C.ar C.ar C.ar C.ar C.3 N.am C.2 C.ar C.2 C.ar C.ar C.ar S.O2

>  <ENSEMBLE_RMSD> (1ettB1)
1.839 1.888 1.898 1.917 1.979 2.092 2.113 2.152 2.206 2.242 2.298 2.310 2.313 2.331 2.335 2.403 2.413 2.462 2.473 2.500 2.519 2.519 2.526 2.558 2.628 2.655 2.691 2.724 2.880 2.893 2.899 2.957 2.961 2.963 2.974 3.022 3.042 3.053 3.085 3.177 3.282 3.318 3.342 3.361 3.504 3.508 3.522 3.533 3.537 3.716

$$$$
