
 OpenBabel03071213D

 15 16  0  0  0  0  0  0  0  0999 V2000
   33.6990   -0.8420   91.5420 N   0  0  0  0  0
   29.4610    0.1760  100.3420 C   0  0  0  0  0
   28.3680    0.5130   99.3860 C   0  0  0  0  0
   30.6030    1.1900  100.2660 C   0  0  0  0  0
   28.9060    0.5180   97.9520 C   0  0  0  0  0
   30.1300    1.3040   95.4310 C   0  0  0  0  0
   30.6950    1.9200   98.9940 N   0  0  0  0  0
   32.1060    0.8340   92.1910 C   0  0  0  0  0
   32.6470   -0.9700   93.6820 C   0  0  0  0  0
   31.2170    1.3480   93.1460 C   0  0  0  0  0
   31.7610   -0.4490   94.6250 C   0  0  0  0  0
   30.8030    1.6060   96.6870 N   0  0  0  0  0
   32.8170   -0.3310   92.4660 C   0  0  0  0  0
   31.0400    0.7180   94.3750 C   0  0  0  0  0
   30.1510    1.3580   97.8710 C   0  0  0  0  0
  1 13  1  0  0  0
  2  3  1  0  0  0
  2  4  1  0  0  0
  3  5  1  0  0  0
  4  7  1  0  0  0
  5 15  1  0  0  0
  6 12  1  0  0  0
  6 14  1  0  0  0
  7 15  1  0  0  0
  8 10  1  0  0  0
  8 13  2  0  0  0
  9 11  2  0  0  0
  9 13  1  0  0  0
 10 14  2  0  0  0
 11 14  1  0  0  0
 12 15  2  0  0  0
M  END
>  <MOLID> (1f3dB1)
1f3dB1

>  <SMILES_CANONICAL> (1f3dB1)
Nc1ccc(cc1)C/N=C/1\CCCCN1	

>  <FINGERPRINT> (1f3dB1)
0000000000000000000000000100001000000001000000000000100000000000000000000011000000000001000000001000000000000001000011100010000000000000000000000000000000000000000000000000000000000000000001000001000000100000000000000000000000000000000000000011000000000000000000000000000000000010000000000010000000000000000010001100001100010000001000010000000000010100010100000000000110000000000000000000000000000000000011000000001000000000000000000000000000001000000000000000000000000000010000000000000000010000000000000000000000000000000000000000100000000000000000100000000000000000000000000000000000000000000000000000000000000000000000100000001000000001010000000000000000100000000000010011100000000010100000000000000000100000000000000000000000000000000000000100000000001000000100000000000000000000000000000000100010000000000100000000000000000000010000000000000000000000000000000001000000000000000000000000000000000010000000000000000000010000000000000000011000000000000000001000000000000100000000000000000000000000000100000000001000000000

>  <MACCS166> (1f3dB1)
000000000000000000000000000000000000010000001000010000000000000000000000000111000001000001100000011000010000001000000111100000011010101011000100101000101011010010101000

>  <OB_MW> (1f3dB1)
203.142

>  <OB_logP> (1f3dB1)
2.8508

>  <OB_PSA> (1f3dB1)
50.41

>  <OB_MR> (1f3dB1)
68.1351

>  <OB_ATOMIC_CHARGES> (1f3dB1)
-0.128057513 0.0559637957 0.0171962691 0.2508351528 0.1206983588 0.2894859913 -0.0356547396 0.0178702814 0.0178702814 0.0014086701 0.0014086701 -0.0610981423 0.0890760127 0.0309093091 0.3320876024

>  <MCT_HBD> (1f3dB1)
2

>  <MCT_HBA> (1f3dB1)
3

>  <ENSEMBLE_TOTAL> (1f3dB1)
2

>  <ENSEMBLE_COORDS> (1f3dB1)
2.7387 -1.4349 -4.3884 -1.4993 -0.4169 4.4116 -2.5923 -0.0799 3.4556 -0.3573 0.5971 4.3356 -2.0543 -0.0749 2.0216 -0.8303 0.7111 -0.4994 -0.2653 1.3271 3.0636 1.1457 0.2411 -3.7394 1.6867 -1.5629 -2.2484 0.2567 0.7551 -2.7844 0.8007 -1.0419 -1.3054 -0.1573 1.0131 0.7566 1.8567 -0.9239 -3.4644 0.0797 0.1251 -1.5554 -0.8093 0.7651 1.9406
2.7625 -1.5953 -3.9552 -1.3196 -0.1805 4.2665 -1.0865 -1.1081 3.0991 -0.4228 1.0249 4.1202 -1.5127 -0.4251 1.8223 -1.2314 0.6550 -0.6036 -0.5928 1.6627 2.8285 2.2146 -0.3251 -1.9883 0.4486 -1.0988 -3.4381 1.2064 0.2622 -1.1261 -0.4868 -0.5337 -2.6546 -0.8084 1.5099 0.5007 1.8633 -0.9939 -3.1043 -0.0987 0.1727 -1.4445 -0.9357 0.9732 1.6774

>  <OB_ATOM_TYPES> (1f3dB1)
N.pl3 C.3 C.3 C.3 C.3 C.3 N.pl3 C.ar C.ar C.ar C.ar N.2 C.ar C.ar C.2

>  <ENSEMBLE_RMSD> (1f3dB1)
0.000 1.191

$$$$
