
 OpenBabel03071213D

 22 24  0  0  0  0  0  0  0  0999 V2000
   62.5690    0.8040    4.3800 C   0  0  0  0  0
   59.8170    4.7640    7.2180 O   0  0  0  0  0
   61.2830    6.1630    6.3470 O   0  0  0  0  0
   67.3650    1.4370    8.5750 O   0  0  0  0  0
   62.0390    4.0000    6.9870 C   0  0  0  0  0
   62.8150    3.7120    5.7600 C   0  0  0  0  0
   65.2490    3.5610    7.7090 C   0  0  0  0  0
   65.3240    1.2270    6.8090 N   0  0  0  0  0
   67.8590    2.8440   10.2830 N   0  0  0  0  0
   67.2800    6.0780   11.9720 C   0  0  0  0  0
   66.2910    6.5490   11.1030 C   0  0  0  0  0
   64.6260    0.5040    5.9370 C   0  0  0  0  0
   67.8760    4.8470   11.7940 C   0  0  0  0  0
   65.8710    5.7870   10.0200 C   0  0  0  0  0
   66.2680    3.5110    8.8290 C   0  0  0  0  0
   60.9710    5.0480    6.8170 C   0  0  0  0  0
   63.5920    1.2520    5.4190 C   0  0  0  0  0
   67.1500    2.5030    9.1580 C   0  0  0  0  0
   64.7710    2.4330    6.8440 C   0  0  0  0  0
   63.7130    2.5030    5.9820 C   0  0  0  0  0
   67.4510    4.0850   10.7070 C   0  0  0  0  0
   66.4500    4.5320    9.8130 C   0  0  0  0  0
  1 17  1  0  0  0
  2 16  1  0  0  0
  3 16  2  0  0  0
  4 18  2  0  0  0
  5  6  1  0  0  0
  5 16  1  0  0  0
  6 20  1  0  0  0
  7 15  1  0  0  0
  7 19  1  0  0  0
  8 12  1  0  0  0
  8 19  1  0  0  0
  9 18  1  0  0  0
  9 21  1  0  0  0
 10 11  2  0  0  0
 10 13  1  0  0  0
 11 14  1  0  0  0
 12 17  2  0  0  0
 13 21  2  0  0  0
 14 22  2  0  0  0
 15 18  1  0  0  0
 15 22  1  0  0  0
 17 20  1  0  0  0
 19 20  2  0  0  0
 21 22  1  0  0  0
M  END
>  <MOLID> (1fgiB1)
1fgiB1

>  <SMILES_CANONICAL> (1fgiB1)
OC(=O)CCc1c([nH]cc1C)C[C@@H]1C(=O)Nc2c1cccc2	

>  <FINGERPRINT> (1fgiB1)
0000001000000000010000000010101000000000000000000100101000000000000000000001000000000001000000000101000010000001000001100001000000100000000000000000000000100000000000000000000000100000000100100001000100000000001100000010000000000000000000000000000000000001000000000100000000001000000000000000000000001000000010001101000000001000001110001000000000100100010100001000000010010000000000000000110100000000100000001000001000000000001100001000110000000000010000001000001000000001010000000000001000001100000000000000110000000000000001001000000000000000100001100000000000000000000001000000100001100000000001000001100000000000000000000000000000000001011000000001000000000001000000000001100000110000100011100000000000100001110000000110000001000000100000010100000000000000000100010000000000000100001110000000000110000000000000000000001000000001000010000000000000000000000100001001000000000000000100011000000000000100000000001000000000000100000000001000011000000000000010110000000000000000001000101000000000100000000000000000011100100000

>  <MACCS166> (1fgiB1)
000000000000000000000000010000000000000000001000010000000000000010000000000100000010000001110001001000011001011000011101101010111011001110111111011011100111111110111000

>  <OB_MW> (1fgiB1)
298.132

>  <OB_logP> (1fgiB1)
2.7567

>  <OB_PSA> (1fgiB1)
82.19

>  <OB_MR> (1fgiB1)
86.6972

>  <OB_ATOMIC_CHARGES> (1fgiB1)
0.0323641499 -0.2456417886 -0.2456417886 -0.272630556 0.1187481065 0.0390820472 0.0590391419 -0.2487917311 -0.1792430126 0.0013147687 -0.0002263409 0.0938632645 0.0162889384 -0.0025083527 0.1078701016 0.3652027457 -0.0055576393 0.2496035787 0.0555845966 -0.0105007416 0.0698425272 0.0019379846

>  <MCT_HBD> (1fgiB1)
3

>  <MCT_HBA> (1fgiB1)
5

>  <ENSEMBLE_TOTAL> (1fgiB1)
49

>  <ENSEMBLE_COORDS> (1fgiB1)
-2.0594 -1.3432 -3.8348 -4.5453 0.8614 -2.5460 -4.0753 2.5670 -1.1055 3.0965 -2.2240 0.5344 -3.0602 0.4027 -0.7979 -1.6574 0.4946 -1.3544 0.2694 -1.0873 0.6581 0.0816 -2.7713 -1.1912 3.2536 -0.5698 2.1778 2.1650 2.7460 3.4123 1.2282 2.9897 2.4722 -0.5619 -2.8450 -2.4411 2.9230 1.5001 3.3956 0.9429 2.0065 1.4325 1.5691 -0.3176 0.5109 -3.9221 1.4144 -1.4793 -1.2572 -1.7064 -2.6528 2.7128 -1.1818 1.0471 -0.2527 -1.5194 -0.6582 -1.0673 -0.8524 -1.4964 2.6222 0.6022 2.4495 1.5943 0.8336 1.4671
-1.5713 -1.4275 -4.3061 -3.8429 1.1263 0.4733 -3.7045 2.5969 -1.2683 2.6459 -2.4805 1.1150 -3.0636 0.2935 -1.5681 -1.5751 0.4285 -1.7938 0.0896 -1.0454 0.4538 0.1898 -2.7916 -1.3628 2.7339 -0.6109 2.5144 1.8677 2.9417 3.0807 1.2050 3.1535 1.9238 -0.2790 -2.8971 -2.6880 2.4391 1.6341 3.3774 1.0215 2.0704 0.9644 1.4755 -0.4281 0.4983 -3.5512 1.4773 -0.8024 -0.9558 -1.7747 -3.0118 2.3449 -1.3260 1.3813 -0.2317 -1.5361 -0.9048 -0.9410 -0.9025 -1.8539 2.2351 0.6528 2.4912 1.4679 0.8454 1.2864
-2.6727 -2.3073 -2.9047 -4.7598 1.3693 -0.8755 -4.0995 0.8688 -3.0030 1.9187 -2.5081 0.9117 -2.4597 1.1487 -1.2553 -2.1115 -0.2058 -0.6797 1.0986 0.0906 -0.4958 0.9020 -1.5996 -2.3275 2.8896 -0.8354 2.2252 2.7065 2.6004 3.5891 1.5789 2.9865 2.9573 -0.1381 -2.2679 -2.9992 3.2472 1.2620 3.3854 0.8932 2.0839 2.0398 0.9439 -0.2650 0.9710 -3.8394 1.0952 -1.8308 -1.3253 -1.8565 -2.5075 1.9556 -1.3592 1.3324 0.2814 -0.7634 -1.3898 -1.0576 -0.8751 -1.4727 2.6153 0.4615 2.5194 1.4327 0.8765 1.8102
-2.8435 -2.2889 -2.7162 -4.2897 2.2677 -0.9265 -4.4934 0.7421 -2.6103 2.6976 -2.3819 0.6777 -2.3296 1.2271 -1.6609 -2.0230 0.0254 -0.7964 1.1735 -0.0653 -0.5709 0.7883 -1.9596 -2.1639 3.2193 -0.6098 2.1132 2.1953 2.5973 3.6566 1.0175 2.7407 3.0150 -0.3237 -2.5812 -2.7604 3.0491 1.4456 3.3894 0.5733 1.7463 2.0451 1.1804 -0.4771 0.8885 -3.8111 1.3530 -1.8021 -1.4529 -1.9586 -2.3568 2.4440 -1.2928 1.1751 0.2732 -0.9282 -1.3688 -1.0675 -0.8813 -1.4660 2.6343 0.5621 2.4736 1.3884 0.7174 1.7651
-2.7332 -2.3430 -3.3005 -3.0661 2.0505 0.5057 -3.2667 2.7459 -1.6566 3.2494 -2.0977 0.7181 -2.7811 0.4292 -1.1489 -1.6001 0.3225 -2.0863 1.1894 -0.4115 -0.7332 0.5180 -2.6749 -1.5965 3.2100 -0.1308 1.9805 1.2621 2.7441 3.2645 0.0879 2.4443 2.6715 -0.5646 -3.2075 -2.3180 2.4289 1.8910 3.0697 -0.0250 1.2877 1.7897 1.2463 -0.6995 0.7562 -3.0487 1.8670 -0.8361 -1.4568 -2.2268 -2.5701 2.6814 -1.0895 1.1162 0.2332 -1.3139 -1.4169 -0.9447 -1.0002 -1.9864 2.3039 0.8494 2.2380 1.0764 0.5636 1.5394
-2.5720 -2.1119 -3.6873 -2.8956 0.6882 0.6466 -2.7565 2.6565 -0.5012 2.3528 -2.4608 1.1641 -2.8517 0.5546 -1.6837 -1.4698 0.4788 -2.2930 1.1494 -0.3920 -0.7077 0.4683 -2.6111 -1.6618 2.7662 -0.4509 2.2837 1.6599 2.9916 3.0773 0.5757 3.0233 2.2755 -0.5545 -3.0848 -2.5027 2.5086 1.8069 3.1281 0.2382 1.8791 1.4372 0.9130 -0.5224 0.7848 -2.8155 1.4370 -0.4793 -1.3785 -2.0646 -2.8228 2.0873 -1.2897 1.3997 0.2193 -1.2439 -1.4840 -0.8838 -0.8724 -2.1590 2.1882 0.7774 2.3349 1.0509 0.8112 1.4507
-1.8898 -1.0554 -4.0434 -4.8287 0.4653 -2.5778 -4.7210 2.0789 -0.9667 2.4130 -2.6811 1.4169 -3.2813 0.1486 -0.8505 -1.9291 0.5661 -1.3838 0.1823 -0.8182 0.5742 0.3851 -2.3249 -1.4331 2.7943 -0.8012 2.7530 2.6625 2.8790 3.1113 2.0824 3.1539 1.9246 -0.1911 -2.3908 -2.7144 2.9365 1.5001 3.4977 1.6874 2.0776 1.0219 1.6571 -0.4759 0.6847 -4.3331 1.0245 -1.4473 -1.0714 -1.3777 -2.8604 2.3128 -1.4811 1.6345 -0.1855 -1.2072 -0.8080 -1.0799 -0.6195 -1.6238 2.5401 0.5304 2.6644 1.8573 0.8087 1.4259
-1.6996 -1.7181 -4.2566 -3.1462 0.9515 0.5781 -2.7543 2.8149 -0.6800 2.9180 -2.1009 0.5477 -2.7460 0.6291 -1.7013 -1.2817 0.3990 -2.0011 0.0305 -1.1489 0.4732 -0.2103 -3.0416 -1.1518 2.8906 -0.3745 2.1248 1.5096 2.8932 3.1824 0.6064 3.0374 2.1912 -0.6911 -3.2040 -2.4641 2.3562 1.7079 3.2465 0.4438 2.0028 1.1766 1.2826 -0.2977 0.3685 -2.8646 1.6034 -0.5754 -1.1264 -2.0139 -2.9312 2.4481 -1.0643 0.9959 -0.3744 -1.6846 -0.8466 -0.9351 -1.0327 -1.8813 2.1678 0.7592 2.3212 1.1760 0.8827 1.2832
-2.7843 -2.4446 -2.9171 -2.8794 2.6385 -0.0338 -4.3664 1.6420 -1.4480 2.8222 -2.3979 0.9590 -2.0220 1.0928 -1.5658 -1.9106 -0.2540 -0.8902 1.2941 -0.3791 -0.7205 0.8600 -2.1998 -2.3896 3.0024 -0.4356 2.2177 1.5030 2.7866 3.2602 0.3998 2.7319 2.4865 -0.2700 -2.7763 -3.0006 2.4849 1.7089 3.2249 0.1722 1.6002 1.5933 1.1276 -0.6502 0.7629 -3.2278 1.7917 -1.0307 -1.3848 -2.1591 -2.5533 2.4129 -1.2926 1.2883 0.3700 -1.2005 -1.5378 -0.9722 -1.1331 -1.6158 2.2644 0.6935 2.3810 1.1042 0.6365 1.5292
-2.9163 -2.7955 -2.5782 -4.0546 2.0742 -0.5777 -1.9374 2.8650 -0.9057 3.3393 -1.9053 0.4486 -2.5893 0.7253 -1.8044 -2.0941 -0.3331 -0.8465 1.0978 -0.2783 -0.7866 0.7212 -2.2905 -2.2354 3.2408 -0.0284 1.8389 1.1869 2.6307 3.3945 0.0119 2.3161 2.8114 -0.3922 -2.9938 -2.7308 2.3867 1.8538 3.1061 -0.0752 1.2160 1.8581 1.2569 -0.6478 0.6754 -2.7873 1.9997 -1.0512 -1.5244 -2.3925 -2.3085 2.7309 -0.9636 0.9385 0.2032 -1.2308 -1.4831 -1.1413 -1.2444 -1.5110 2.2877 0.8682 2.2062 1.0488 0.5550 1.5416
-2.2447 -1.4828 -3.8817 -4.4655 1.6385 -1.0916 -2.8745 2.5290 0.2803 3.1513 -2.3879 1.3267 -2.2488 0.9764 -1.4535 -2.2540 -0.4423 -0.9292 0.4120 -1.5057 0.4276 0.7044 -2.4492 -1.8865 2.8336 -0.4240 2.5565 1.3453 2.9606 2.7391 0.6642 2.9233 1.5754 -0.0415 -2.4508 -3.0799 2.1287 1.8111 3.1772 0.6951 1.7330 0.7339 1.6578 -0.6446 0.4973 -3.1977 1.7961 -0.6421 -1.1732 -1.7366 -2.9009 2.6289 -1.2928 1.4846 -0.0360 -1.6900 -0.9713 -1.1686 -1.2382 -1.5386 2.1144 0.7188 2.4040 1.3689 0.6584 1.1726
-2.7594 -1.9402 -3.2398 -3.8626 2.3518 -1.1516 -3.0352 1.5574 -3.1248 3.1766 -0.9542 -0.6791 -1.9028 1.0795 -1.0491 -2.3156 -0.3116 -0.6224 0.4540 -1.3288 0.6336 0.3417 -2.7637 -1.4213 3.4040 0.1942 1.3456 1.8192 2.2065 4.0190 0.5559 2.1726 3.5472 -0.5498 -2.9386 -2.4969 2.8939 1.5251 3.3069 0.2360 1.4377 2.3281 1.2118 -0.0278 0.4397 -2.9768 1.6623 -1.9090 -1.5921 -2.0926 -2.3527 2.6994 -0.3470 0.2704 -0.2139 -1.7601 -0.6169 -1.3766 -1.3292 -1.1386 2.5727 0.8437 2.2005 1.2196 0.7630 1.7110
-2.3997 -1.8180 -3.7222 -2.7500 1.9347 0.7990 -4.1251 1.6813 -1.0046 1.6792 -2.6359 1.5615 -2.3687 0.0827 -0.5774 -1.4135 0.3578 -1.7161 1.4616 -0.6021 -0.6655 0.9145 -2.4734 -2.2443 2.2124 -0.6397 2.6590 1.8441 3.0406 2.8582 1.0453 3.2018 1.7834 -0.1496 -2.8103 -3.1018 2.3038 1.7115 3.2463 0.6407 2.0556 0.9787 0.8436 -0.5055 0.7155 -3.1814 1.3098 -0.3229 -1.1064 -1.8616 -3.0161 1.6197 -1.4179 1.6642 0.5513 -1.2683 -1.6274 -0.6538 -0.8609 -2.0674 1.9297 0.6774 2.4842 1.1021 0.8404 1.3158
-2.8370 -1.9693 -3.1381 -2.9446 1.5576 -3.1914 -3.8891 2.3694 -1.2788 3.1667 -1.0481 -0.6630 -1.8430 1.0965 -1.1821 -2.2836 -0.2307 -0.6066 0.4425 -1.3243 0.6759 0.2373 -2.8520 -1.3007 3.4229 0.1425 1.3322 1.8923 2.2891 3.9304 0.6313 2.2808 3.4515 -0.6759 -3.0389 -2.3557 2.9479 1.5474 3.2492 0.2930 1.5162 2.2558 1.2249 -0.0472 0.4292 -3.0121 1.7408 -1.8517 -1.6741 -2.1363 -2.2473 2.7050 -0.4041 0.2693 -0.2595 -1.7815 -0.5457 -1.4062 -1.3213 -1.0785 2.6072 0.8329 2.1704 1.2541 0.7807 1.6758
-2.3978 -1.8003 -3.9248 -2.5745 0.2542 0.9212 -2.7739 2.3509 0.0414 1.4368 -2.5611 1.5884 -2.7291 0.4197 -1.4038 -1.3761 0.5121 -2.0739 1.2988 -0.5578 -0.6840 0.6534 -2.5837 -2.0069 2.0784 -0.5782 2.6497 1.8766 3.1167 2.8078 1.1017 3.3036 1.7197 -0.3612 -2.9264 -2.9193 2.2802 1.7735 3.2080 0.6568 2.1685 0.9200 0.7138 -0.4018 0.7050 -2.6867 1.1404 -0.0967 -1.2098 -1.8857 -3.0557 1.4464 -1.3400 1.6663 0.3757 -1.2738 -1.5947 -0.7417 -0.8185 -2.1906 1.8722 0.7496 2.4489 1.0600 0.9382 1.2740
-2.9304 -2.7660 -2.6262 -1.8250 2.9143 -0.9671 -3.9323 2.1670 -0.5095 3.3053 -1.9512 0.5027 -2.4234 0.8265 -1.8309 -2.0983 -0.3135 -0.8931 1.0996 -0.3150 -0.7790 0.7098 -2.3406 -2.2049 3.2097 -0.0520 1.8656 1.1520 2.6320 3.3756 -0.0169 2.3243 2.7755 -0.4083 -3.0234 -2.7185 2.3537 1.8520 3.1007 -0.0990 1.2133 1.8348 1.2348 -0.6714 0.6882 -2.8341 2.0127 -1.0215 -1.5363 -2.3967 -2.3212 2.7022 -0.9958 0.9723 0.1980 -1.2638 -1.4699 -1.1462 -1.2520 -1.5217 2.2594 0.8565 2.2110 1.0256 0.5428 1.5369
-1.4936 -0.9698 -4.3273 -4.3520 2.0426 -1.1841 -3.4005 1.5165 0.8230 2.4728 -2.6408 1.8449 -3.0436 0.1070 -1.1010 -1.6334 0.4242 -1.5442 0.1579 -1.3110 0.4458 0.4191 -2.6563 -1.6608 2.4989 -0.5060 2.7998 1.8101 3.1130 2.4276 1.2750 3.0700 1.1901 -0.0370 -2.5587 -2.9885 2.2624 1.8910 3.0828 1.1295 1.8013 0.4867 1.5491 -0.7368 0.6287 -3.5897 1.2835 -0.3616 -0.8158 -1.4630 -3.1146 2.2131 -1.4458 1.8090 -0.1226 -1.5542 -0.9873 -0.8817 -0.8177 -1.8181 2.0904 0.7362 2.4290 1.4914 0.6748 1.1202
-3.1226 -2.6165 -2.1807 -2.5744 3.1821 -1.3724 -4.4424 1.8930 -1.6128 3.8525 -1.4038 0.0414 -2.2592 0.9751 -2.0687 -2.0410 0.0193 -0.9189 1.1319 -0.2940 -0.7221 0.5438 -2.4856 -1.7972 3.5151 0.3239 1.5813 1.1432 2.2475 3.6737 0.0071 1.6569 3.2491 -0.6391 -3.1341 -2.1956 2.4350 1.8457 3.1294 0.0450 0.6278 2.2160 1.5880 -0.7287 0.6589 -3.2289 2.0307 -1.6540 -1.6965 -2.3358 -1.9348 3.1161 -0.6707 0.6885 0.1451 -1.2497 -1.2715 -1.1903 -1.1107 -1.3491 2.4410 0.9148 2.1679 1.2304 0.3130 1.6714
-3.1292 -2.9243 -2.0181 -3.8283 2.4948 -0.9624 -1.6425 2.8091 -1.5404 3.8605 -0.9401 -0.2601 -2.6999 0.6711 -1.8920 -2.1993 -0.2161 -0.7754 0.9842 -0.2195 -0.8392 0.5276 -2.4459 -1.9131 3.3932 0.6148 1.4233 0.9075 2.0897 3.7365 -0.1742 1.4153 3.2951 -0.6163 -3.1995 -2.2354 2.2128 1.8811 3.1204 -0.0622 0.4770 2.1841 1.5660 -0.6070 0.5068 -2.6295 2.0949 -1.4485 -1.7210 -2.5122 -1.8747 3.0740 -0.3535 0.4708 0.0561 -1.2627 -1.3305 -1.2883 -1.2533 -1.3020 2.2825 1.0409 2.0807 1.1263 0.3455 1.5742
-1.9136 -1.3247 -4.2470 -4.1828 2.0489 -0.6680 -2.7455 1.5414 1.0312 2.5556 -2.5815 1.8801 -2.1870 0.9797 -1.2475 -2.3559 -0.5218 -1.2699 0.2289 -1.4472 0.3360 0.8498 -2.2331 -1.9777 2.3228 -0.4556 2.8275 1.4467 3.1100 2.3607 1.0307 3.0283 1.0803 0.2482 -2.2019 -3.2494 1.9016 1.9192 3.0692 1.0168 1.7469 0.3843 1.5578 -0.7622 0.5934 -3.0411 1.5332 -0.1543 -0.9480 -1.5819 -3.1632 2.1953 -1.4135 1.8213 -0.0457 -1.5902 -1.1126 -1.1408 -1.1874 -1.7815 1.8453 0.7498 2.4202 1.3611 0.6437 1.0671
-3.4691 -2.1260 -1.6849 -3.4497 0.9377 -3.5521 -4.3642 2.1399 -1.8410 3.8456 -1.3096 -0.2621 -2.0424 1.4810 -1.7673 -2.0470 0.4502 -0.6603 1.0833 -0.1721 -0.6409 0.2097 -2.3554 -1.5325 3.7297 0.2347 1.4918 1.6346 2.0748 3.9298 0.4339 1.6133 3.5234 -1.0568 -2.8986 -1.8168 2.8579 1.6513 3.2578 0.3352 0.6793 2.4078 1.6835 -0.6563 0.6641 -3.4144 1.5687 -2.3541 -2.0085 -1.9794 -1.5478 3.2068 -0.6367 0.5354 -0.0260 -1.0557 -1.0661 -1.3426 -0.7821 -1.0729 2.7395 0.8112 2.2227 1.4608 0.3296 1.7661
-3.1988 -2.1031 -2.4003 -3.0050 3.1665 -1.6718 -4.4133 1.3705 -1.6735 4.1945 -1.0666 -0.0443 -2.1372 1.1315 -0.9127 -1.4282 0.4434 -2.0566 1.3436 -0.5132 -0.8335 0.1618 -2.7339 -1.0164 3.5693 0.5570 1.5193 0.8964 2.0412 3.6065 -0.1295 1.2984 3.1426 -1.1013 -3.1711 -1.4555 2.2414 1.8631 3.0715 0.0854 0.3083 2.0942 1.8483 -0.7880 0.5708 -3.3166 1.8654 -1.4622 -1.8253 -2.1075 -1.8648 3.3444 -0.4747 0.6073 0.1636 -1.3416 -1.1751 -1.0088 -0.9232 -1.6841 2.4057 0.9740 2.0845 1.3098 0.2037 1.5540
-2.7735 -2.3715 -2.9658 -4.0294 2.5182 -2.9982 -4.7708 0.3604 -3.0124 3.2654 -0.7493 -0.8008 -2.9514 1.0143 -1.5669 -1.7120 0.4653 -2.2385 0.4751 0.0939 0.0333 -0.2190 -2.3203 -0.3084 3.7049 0.5849 1.0696 2.5669 1.8824 4.3462 1.3403 1.3211 4.3486 -1.1186 -2.9981 -1.1503 3.4704 1.6843 3.2184 0.8921 0.5070 3.2244 1.5679 -0.4555 0.9303 -4.0105 1.2236 -2.6012 -1.7575 -2.1029 -1.9323 2.9247 -0.2395 0.2580 -0.3387 -0.9587 -0.6245 -1.2636 -0.7836 -1.5865 3.0268 0.9548 2.1876 1.7104 0.3692 2.1694
-1.4217 -0.4745 -4.2528 -4.8820 1.2280 -1.9534 -4.4820 1.3703 0.2892 1.7491 -2.7432 2.5067 -3.2406 -0.1844 -1.0717 -1.8929 0.4567 -1.3143 0.1353 -1.1684 0.5117 0.7107 -2.1396 -1.7439 2.1664 -0.5411 3.1755 2.5902 3.0080 2.2105 2.2926 2.8773 0.9014 0.2774 -1.9406 -3.0680 2.5513 1.8518 3.0984 1.9218 1.5796 0.3498 1.5803 -0.9147 0.8978 -4.2447 0.8884 -0.8078 -0.6888 -0.9977 -3.0852 1.8218 -1.5450 2.2700 -0.0413 -1.2581 -0.9561 -0.9050 -0.5644 -1.7186 2.1769 0.6780 2.5751 1.8251 0.5335 1.1855
-1.6800 -0.9932 -4.2669 -4.8654 1.2467 -0.1403 -5.1721 0.5640 -2.2963 1.2820 -2.7581 2.4278 -2.9462 0.7800 -1.3888 -2.5131 -0.6642 -1.2796 0.1303 -0.7908 0.4526 1.1162 -1.0924 -1.8652 2.0309 -0.7169 3.2920 3.0218 2.7958 2.6570 2.7799 2.8168 1.3300 0.6031 -1.1484 -3.1733 2.7777 1.5873 3.4365 2.2744 1.6314 0.6480 1.5584 -0.8261 0.9609 -4.4388 0.8318 -1.3568 -0.7381 -1.0022 -3.1330 1.5819 -1.5798 2.2910 0.0118 -0.9011 -1.0219 -1.1213 -0.8362 -1.7445 2.2915 0.5197 2.7920 2.0153 0.5358 1.3788
-2.6637 -2.3600 -3.4378 -0.8726 2.6129 -1.0356 -3.0918 2.4420 -0.5340 3.0376 -0.8581 -0.7313 -2.0064 0.7554 -1.8808 -2.2774 -0.4416 -0.9976 0.3450 -1.4424 0.5400 0.2787 -3.0979 -1.3410 3.1076 0.4696 1.1928 1.2582 2.4262 3.7361 0.0097 2.1698 3.2925 -0.5584 -3.3609 -2.4415 2.4176 1.8588 3.0579 -0.2051 1.3155 2.1296 0.9685 -0.0811 0.3049 -2.0825 2.0040 -1.0630 -1.5624 -2.4595 -2.4627 2.4831 -0.2369 0.1655 -0.2693 -1.9810 -0.6963 -1.3753 -1.5622 -1.3380 2.1941 1.0640 2.0046 0.8646 0.7632 1.5356
-3.3871 -2.2101 -1.6254 -3.6034 2.9930 -2.0523 -4.4318 0.9586 -2.6722 4.1286 -0.7632 -0.4090 -2.0814 1.2253 -2.1889 -1.9277 0.4534 -0.8978 1.1781 -0.2140 -0.7302 0.2837 -2.4770 -1.3793 3.6912 0.6318 1.4170 1.3010 1.7353 4.0205 0.2356 1.0208 3.6028 -0.9877 -3.0299 -1.6224 2.5648 1.6751 3.2935 0.3253 0.1797 2.4159 1.8832 -0.6482 0.5412 -3.5003 1.6705 -2.3257 -1.9270 -2.0699 -1.4828 3.3634 -0.2861 0.4177 0.0642 -1.1288 -1.0731 -1.2464 -0.8351 -1.1413 2.6079 0.9286 2.1828 1.4660 0.1903 1.7089
-2.0703 -2.7707 -3.3590 -3.4939 2.6892 -1.7090 -4.1923 1.4561 -3.4981 2.1288 0.7532 -1.3242 -3.0927 0.3880 -1.6362 -1.7044 0.0787 -2.1494 -0.0489 -0.2628 0.5445 -0.2164 -2.6748 -0.1707 2.7621 1.6871 0.7245 2.7838 1.4497 4.4207 2.0520 0.3224 4.5354 -0.7761 -3.3679 -1.2599 3.0792 2.0109 3.1075 1.5411 -0.3571 3.3502 1.4500 -0.3003 0.7728 -3.6477 1.5395 -2.4079 -1.3646 -2.4864 -2.0963 2.1251 0.7596 -0.1005 -0.4901 -1.3191 -0.3957 -1.1922 -1.1621 -1.5322 2.5829 1.3805 2.0362 1.7848 0.1861 2.1472
-1.2989 -1.2999 -4.6340 -4.6006 1.2688 -0.5643 -3.6266 -0.5863 0.3436 -0.1290 -1.8915 2.5124 -3.3968 -0.1214 -2.0110 -2.0536 0.5421 -2.2249 -0.0326 -0.0798 0.1051 0.7972 -1.7389 -1.6292 1.1080 -0.0684 3.3019 3.5252 2.6386 2.5687 3.6233 2.4388 1.2390 0.4425 -2.0638 -2.9515 2.6464 1.8044 3.3806 2.8480 1.3907 0.5849 1.1448 -0.5060 0.9597 -3.8590 0.1368 -0.6136 -0.6032 -1.3007 -3.3330 0.6043 -0.9298 2.3261 -0.0893 -0.7307 -1.2253 -0.9576 -0.4496 -2.2134 1.9177 0.8738 2.7518 1.9897 0.6728 1.3265
-2.4428 -2.5843 -3.0278 -4.5982 0.3040 -3.1814 -3.6885 2.3871 -3.3946 2.2990 0.8022 -1.2919 -2.9165 0.8941 -1.6654 -1.6166 0.2976 -2.1530 0.0299 -0.0022 0.5628 -0.5061 -2.4213 0.1046 3.0137 1.6173 0.7794 3.0658 1.2422 4.4623 2.2659 0.1591 4.5443 -1.1927 -3.1345 -0.8936 3.3798 1.8327 3.1661 1.6802 -0.4283 3.3431 1.5145 -0.2343 0.7777 -3.7433 1.2983 -2.8419 -1.6762 -2.2683 -1.8093 2.2959 0.7736 -0.0683 -0.5856 -1.0714 -0.2606 -1.2880 -0.9317 -1.3996 2.8029 1.2969 2.0831 1.9070 0.1714 2.1637
-1.5002 -0.9010 -4.5129 -2.0272 1.1906 1.2110 -4.0508 1.5300 0.2152 1.5418 -2.6300 2.6303 -2.0986 1.0516 -1.1203 -2.3003 -0.3844 -1.5466 0.0733 -1.4793 0.2587 0.9930 -2.0106 -2.0322 1.3901 -0.3404 3.0914 1.5585 3.1265 1.8114 1.6851 2.8299 0.5024 0.5451 -1.8539 -3.3574 1.4168 2.0661 2.8025 1.6588 1.4430 0.0514 1.4124 -1.0121 0.8048 -2.8573 1.2793 0.1460 -0.6650 -1.2553 -3.3512 1.4578 -1.4650 2.2669 -0.0116 -1.4679 -1.2199 -1.0251 -0.9998 -1.9704 1.3672 0.8041 2.3600 1.4364 0.4788 0.9590
-1.6156 -2.4138 -4.0678 -4.8761 1.0630 -1.4675 -3.6509 0.8508 0.4438 -1.1975 -0.5562 1.8696 -3.1749 -0.5430 -1.4648 -2.0214 0.0777 -2.2196 0.6004 0.3325 -0.4318 1.1970 -1.7020 -1.7912 0.3830 0.8206 2.9057 3.8582 2.0932 3.0128 4.3224 1.4453 1.9251 0.5832 -2.4572 -2.8092 2.4707 1.9348 3.4334 3.4387 0.6005 1.1279 1.0228 -0.2797 0.8911 -3.8908 0.5276 -0.7093 -0.6342 -1.9362 -3.0779 -0.0879 -0.0430 1.9170 0.2810 -0.6983 -1.4483 -0.8319 -0.7982 -2.1989 1.6773 1.1665 2.6774 2.1466 0.5150 1.4824
-1.5103 -0.7431 -4.4630 -3.8963 1.6123 0.3188 -2.0991 0.8275 1.4839 1.6985 -2.5523 2.6494 -1.9914 1.0495 -0.9164 -2.2561 -0.3305 -1.4742 0.1178 -1.5825 0.2572 0.9601 -2.0715 -2.0696 1.4626 -0.2569 3.0290 1.3383 3.1611 1.6088 1.4661 2.8177 0.3107 0.5037 -1.8357 -3.3786 1.3112 2.1356 2.6465 1.5192 1.4153 -0.0845 1.4354 -1.0160 0.7689 -2.6348 1.1355 0.4297 -0.6791 -1.1877 -3.3308 1.5489 -1.4065 2.2450 -0.0099 -1.5241 -1.2190 -1.0128 -0.9823 -1.9348 1.3479 0.8555 2.2560 1.3800 0.4791 0.8669
-3.2387 -2.2575 -2.3944 -3.2172 1.2422 -0.7714 -3.1480 2.0934 -2.8867 2.4498 1.5914 -1.3786 -1.1687 1.1462 -1.8897 -0.9647 -0.1651 -2.6167 1.2735 -1.0053 -0.4349 -0.4211 -2.8137 -0.0788 2.9169 1.6863 0.9105 1.8804 0.8539 4.3628 0.7886 0.1255 4.0517 -1.6760 -3.1635 -0.6123 2.7109 1.4275 3.3102 0.4389 -0.1316 2.6590 1.0744 0.3514 0.2125 -2.6062 1.5428 -1.9410 -2.0112 -2.2815 -1.5766 2.2204 1.2649 -0.2218 -0.0152 -1.6609 -0.7650 -0.9400 -1.3064 -1.6765 2.3878 1.1483 2.0404 1.2653 0.3115 1.6974
-2.2956 -2.4831 -3.1544 -3.6790 1.9919 -3.6422 -4.6124 0.1175 -2.7356 2.0648 1.0238 -1.2790 -2.6582 1.1099 -1.7291 -1.4398 0.3543 -2.2130 -0.0519 0.0010 0.6434 -0.6648 -2.3895 0.1532 2.8820 1.7375 0.7927 3.1809 1.1340 4.4333 2.4026 0.0342 4.4997 -1.2855 -3.0786 -0.9054 3.3973 1.8117 3.1605 1.7548 -0.4921 3.3040 1.4506 -0.1666 0.7637 -3.7523 0.9856 -2.7395 -1.6301 -2.1998 -1.8699 2.1392 0.9224 -0.0619 -0.6428 -1.0413 -0.2269 -1.2280 -0.8789 -1.4268 2.7640 1.3303 2.0838 1.9042 0.1758 2.1492
-1.4671 -1.2383 -4.4148 -2.7477 1.3667 0.7618 -4.5512 0.5510 -0.3729 -1.2152 -1.1767 2.3602 -2.3541 0.4860 -1.3673 -2.0372 -0.9928 -1.3601 0.7795 -1.4291 0.1308 1.4969 -1.6448 -2.2566 0.5190 0.1772 3.1567 3.3754 2.4057 2.3857 3.3528 2.2746 1.0434 0.8788 -1.6002 -3.5197 2.4188 1.6845 3.2178 2.3691 1.4130 0.3983 0.3555 -0.1401 0.8045 -3.3533 0.7762 -0.2959 -0.4411 -1.3637 -3.3636 -0.2284 -0.4771 2.1765 0.4791 -1.4192 -1.3204 -0.7016 -1.2419 -1.9423 1.5453 0.8770 2.6045 1.5269 0.7118 1.1733
-1.5479 -1.9727 -3.9171 -5.2250 0.8266 -0.7074 -5.1524 -0.4077 -2.6259 -0.8561 -0.8463 2.5976 -3.1331 0.5389 -1.7058 -2.4011 -0.6870 -1.2083 0.2454 0.5053 0.1194 1.2054 -0.4321 -2.0073 1.0038 0.3072 3.4254 4.4183 1.6106 2.8229 4.5196 1.2611 1.5239 0.7071 -1.1204 -3.1284 3.2018 1.3241 3.5752 3.4126 0.5985 0.8442 1.0206 -0.3210 1.1278 -4.5954 0.2415 -1.7540 -0.6228 -1.3026 -2.9853 0.2431 -0.3307 2.4446 0.1046 -0.2124 -1.1684 -1.0167 -0.7057 -1.7236 2.1913 0.7374 2.9226 2.2769 0.3877 1.5280
-1.7938 -2.5729 -3.4567 -4.0641 2.4068 -1.9396 -4.3963 0.8156 -3.5418 0.8181 2.3185 -0.5986 -3.1957 0.2781 -1.5197 -1.7604 0.1738 -1.9831 -0.1040 -0.2477 0.7110 -0.0033 -2.5748 -0.2310 2.0122 2.3462 1.4131 3.5691 0.4331 4.1774 3.2242 -0.8027 3.7611 -0.4677 -3.2194 -1.3925 3.1793 1.6100 3.4090 2.4550 -0.9872 2.5358 1.3267 0.2311 0.5618 -3.9396 1.1644 -2.4638 -1.1453 -2.3345 -2.1547 1.3220 1.7467 0.3586 -0.4305 -1.2446 -0.3334 -1.1328 -1.0590 -1.4652 2.4582 1.4163 2.2982 2.0687 0.1025 1.8540
-1.8618 -2.8638 -3.5393 -3.1158 2.5091 -1.2883 -4.7154 1.2407 -2.3062 -0.0595 2.2544 -0.2746 -2.4129 0.5136 -2.2810 -2.4977 -0.6983 -1.3816 -0.0193 -0.6460 0.6252 0.7531 -2.4264 -0.9751 1.1554 2.3327 1.7223 3.5372 0.6715 4.0184 3.6421 -0.4984 3.3547 0.2358 -3.0480 -2.1266 2.6648 1.7289 3.5206 2.8729 -0.7351 2.1380 1.1681 0.2894 0.4952 -3.5556 1.4247 -1.9695 -0.9664 -2.5095 -2.4221 0.6548 1.7290 0.5678 -0.1992 -1.4724 -0.5899 -1.2488 -1.4883 -1.4314 1.9494 1.4770 2.4176 2.0189 0.2152 1.7259
-2.6289 -3.2255 -2.5262 -3.0368 2.3775 -2.4649 -2.5082 1.9212 -0.2927 0.5702 2.6053 -0.8655 -2.8349 0.1233 -1.8630 -1.5194 -0.2910 -2.4833 1.1298 -0.3537 -0.7039 0.4444 -2.7572 -0.5431 1.8410 2.4397 1.0909 2.8078 0.4384 4.0532 2.1113 -0.6774 3.7542 -0.5908 -3.5588 -1.0568 2.7838 1.5894 3.1577 1.3231 -0.7560 2.5297 0.5975 0.5239 0.4121 -2.7540 1.5510 -1.4305 -1.4207 -2.7952 -1.7992 0.9819 1.9708 0.0965 0.1972 -1.4612 -1.0123 -0.9170 -1.4348 -1.7658 2.0736 1.4835 2.0281 1.3489 0.2869 1.6849
-1.7624 -1.7606 -3.9679 -5.1474 0.5459 -1.0584 -4.0333 0.9439 -3.0103 -1.1780 1.5156 1.6228 -2.8110 0.4426 -0.9950 -2.4663 -1.0289 -1.0228 0.2969 -0.9121 0.5828 1.1415 -1.5065 -1.7073 0.7662 1.5199 2.9213 4.3777 0.7480 3.1803 4.5274 0.1726 1.9693 0.5691 -1.7482 -2.9697 3.0738 1.2391 3.6103 3.3875 0.0202 1.0721 0.8668 0.4797 0.7805 -4.0349 0.6663 -1.8208 -0.7705 -1.6001 -2.8890 -0.0038 1.2189 1.7977 0.0748 -1.1979 -0.8533 -1.0922 -1.2432 -1.5208 2.0390 1.0661 2.7791 2.1790 0.4189 1.4993
-1.6563 -2.7820 -3.7597 -4.2907 1.2399 -0.6729 -2.4910 2.0040 -1.8496 -0.8990 2.3322 0.7566 -3.2747 -0.2509 -2.1695 -2.6562 -1.2424 -1.2092 -0.0919 -0.5881 0.5268 1.0029 -1.7423 -1.4265 0.7649 2.1141 2.3836 3.9020 0.4773 3.4756 4.0261 -0.3836 2.4447 0.5623 -2.3640 -2.6087 2.7686 1.3927 3.5441 3.0307 -0.4170 1.3794 0.8265 0.6194 0.5278 -3.2753 1.1134 -1.5595 -0.7803 -2.2563 -2.6964 0.0956 1.7795 1.2060 -0.1477 -1.2446 -0.8001 -1.2415 -1.5265 -1.5306 1.8575 1.3276 2.5662 1.9677 0.3976 1.4720
-2.1502 -2.3102 -3.4659 -5.0109 1.0673 -1.9812 -3.3794 0.9109 -3.5701 -0.1331 2.5196 0.3626 -2.8096 0.7786 -1.2327 -2.7040 -0.6835 -0.8638 0.0505 -0.5192 0.7282 0.7549 -1.9594 -1.2198 1.3393 2.2728 2.1637 3.9670 0.2589 3.8256 3.9955 -0.7625 2.9454 0.1383 -2.4525 -2.3842 3.0554 1.3820 3.6284 3.0881 -0.7855 1.8026 1.1888 0.4772 0.6019 -3.7324 0.9140 -2.4015 -1.1490 -2.0471 -2.4160 0.6863 1.8677 0.9972 -0.2268 -1.2133 -0.5515 -1.3913 -1.2577 -1.2240 2.2222 1.3288 2.5823 2.2002 0.2130 1.6729
-1.5236 -3.3035 -3.1062 -4.4144 1.0463 -0.4355 -2.7752 1.9668 -1.7295 -1.4980 1.5260 1.6888 -3.2423 -0.3938 -1.8614 -2.2680 -1.1354 -0.9742 0.3604 0.6133 -0.5015 1.2180 -1.0023 -2.2132 0.6107 1.8150 2.6606 4.1004 0.6242 2.9985 4.0456 -0.3579 2.0754 0.6993 -2.0939 -2.9343 2.9354 1.4626 3.2563 2.8274 -0.5907 1.3093 0.3942 0.1730 0.9504 -3.4166 0.9987 -1.3495 -0.5942 -2.2780 -2.5957 -0.3108 1.2446 1.7810 0.1678 -0.5379 -1.4118 -0.9437 -1.2669 -1.6175 1.8404 1.2534 2.5147 1.7872 0.2365 1.4951
-2.4018 -2.4608 -3.0831 -4.6860 -0.2173 -1.6290 -4.3554 1.4592 -3.1425 -0.4780 2.5043 1.0462 -2.6601 0.9416 -1.5028 -1.5494 0.4608 -2.4113 0.9481 0.2541 -0.4221 0.4647 -2.1863 -0.7818 1.5359 2.2894 2.2148 4.2092 0.0659 3.4811 3.7735 -1.0787 2.9161 -0.4604 -2.9391 -1.5269 3.4886 1.3155 3.2707 2.5848 -1.0865 2.0729 0.7086 0.3689 1.0730 -3.9701 0.7792 -2.2033 -1.2888 -2.1013 -2.1861 0.4856 1.8448 1.4116 0.1494 -0.8419 -1.0179 -0.8971 -0.7435 -1.8572 2.4218 1.2895 2.4625 1.9770 0.0821 1.8151
-2.2381 -3.4699 -2.1301 -4.6525 1.4093 -1.6532 -2.6610 2.5099 -1.8316 -0.3482 2.8364 0.4438 -2.7896 0.1466 -2.2893 -2.2516 -0.5420 -1.0561 0.8196 0.3288 -0.7382 1.1053 -1.9955 -1.6253 1.4131 2.3981 1.9193 3.5933 -0.1062 3.5602 3.1114 -1.2021 2.9389 0.2615 -3.0553 -2.0054 3.0596 1.2157 3.2516 2.0516 -1.0862 1.9443 0.4867 0.5589 0.7241 -3.3223 1.4851 -1.8961 -1.0259 -2.6759 -1.8594 0.4415 2.0668 0.9739 0.2590 -0.9500 -1.2342 -1.0301 -1.3103 -1.3722 2.1081 1.2989 2.3140 1.6087 0.1391 1.6210
-1.1894 -1.0923 -4.1646 -4.7559 0.4948 -2.8253 -4.9373 1.1385 -0.6432 -1.1918 1.2787 2.3662 -3.3068 -0.5142 -1.2904 -1.9841 0.2029 -1.4371 0.0791 -0.9143 0.7396 0.8973 -2.1167 -1.3007 1.0065 1.2986 3.1669 4.6054 0.7559 2.4832 4.4845 0.3176 1.2133 0.5530 -2.1630 -2.6639 3.4233 1.1120 3.2599 3.1699 0.1746 0.5992 0.6378 0.4786 0.9621 -4.4074 0.4693 -1.5170 -0.5068 -1.3563 -2.8850 0.0028 1.0524 2.2289 -0.0096 -1.2315 -0.7045 -0.8810 -0.7629 -1.6159 2.2266 0.9449 2.6835 2.0839 0.4325 1.3448
-0.7517 -1.7512 -4.3169 -4.3111 1.7501 -1.4118 -3.8589 0.1721 0.1750 -1.3503 1.8751 1.6619 -3.0787 -0.1169 -2.0883 -1.6167 0.2681 -2.0939 -0.2469 -0.7286 0.6249 0.5757 -2.4893 -0.9545 0.7033 1.7274 2.7762 4.2465 0.6607 2.6956 4.2176 0.0305 1.5028 0.4471 -2.7699 -2.3267 3.0392 1.2737 3.2366 2.9803 -0.0559 0.7366 0.4894 0.5971 0.6905 -3.7665 0.5924 -0.9682 -0.3439 -1.8396 -2.9034 -0.1999 1.4645 1.7446 -0.1789 -1.3309 -0.7272 -0.7590 -0.9140 -1.8677 1.9067 1.1446 2.5348 1.8568 0.4402 1.2791
-2.1860 -2.4014 -3.3326 -4.6199 1.4139 -2.6447 -4.6476 -0.6130 -1.5959 -0.8340 2.1550 1.4533 -2.7555 0.8603 -1.3405 -1.6935 0.5117 -2.3600 0.8373 0.4149 -0.4047 0.6560 -2.0177 -1.0154 1.2749 2.1491 2.4673 4.3633 0.2761 3.2710 4.0859 -0.8398 2.5656 -0.1803 -2.7976 -1.8340 3.4349 1.4002 3.2724 2.8585 -0.9396 1.7852 0.6982 0.2859 1.0998 -4.0928 0.4429 -1.8613 -1.1162 -2.0068 -2.3989 0.2553 1.6379 1.6629 0.1719 -0.7057 -1.1078 -0.8918 -0.6529 -1.9290 2.3330 1.2973 2.5194 2.0485 0.1292 1.7280

>  <OB_ATOM_TYPES> (1fgiB1)
C.3 O.co2 O.co2 O.2 C.3 C.3 C.3 N.ar N.am C.ar C.ar C.ar C.ar C.ar C.3 C.2 C.ar C.2 C.ar C.ar C.ar C.ar

>  <ENSEMBLE_RMSD> (1fgiB1)
0.783 0.857 0.862 0.875 0.944 0.971 0.977 1.004 1.051 1.062 1.130 1.146 1.159 1.218 1.252 1.256 1.263 1.321 1.371 1.386 1.388 1.418 1.431 1.463 1.472 1.527 1.540 1.725 1.757 1.801 1.821 1.878 1.891 1.905 1.976 2.014 2.072 2.145 2.168 2.182 2.205 2.229 2.254 2.257 2.259 2.277 2.284 2.322 2.328

$$$$
