
 OpenBabel03071213D

 20 20  0  0  0  0  0  0  0  0999 V2000
   39.1910  111.0660   11.8260 O   0  0  0  0  0
   40.4760  108.2160   11.9990 O   0  0  0  0  0
   41.1290  114.8450   15.3870 O   0  0  0  0  0
   43.0200  113.7690   16.5190 O   0  0  0  0  0
   43.6620  108.4370   15.4520 O   0  0  0  0  0
   45.1480  109.3450   13.7810 O   0  0  0  0  0
   44.1930  107.5590   10.9790 O   0  0  0  0  0
   43.4980  115.3100   14.8120 O   0  0  0  0  0
   44.2740  107.0790   13.4760 O   0  0  0  0  0
   41.5480  112.0060   13.9920 C   0  0  0  0  0
   42.4870  113.1230   14.0730 O   0  0  0  0  0
   42.6680  110.9340   12.0430 O   0  0  0  0  0
   42.6350  108.9350   13.2580 O   0  0  0  0  0
   43.4000  108.8140   10.8380 C   0  0  0  0  0
   40.3850  110.5930   12.4160 C   0  0  0  0  0
   41.0280  109.4460   11.6380 C   0  0  0  0  0
   41.4870  111.6220   12.5470 C   0  0  0  0  0
   42.5290  109.5010   11.9460 C   0  0  0  0  0
   42.4850  114.2640   15.2110 P   0  0  0  0  0
   43.9560  108.4630   13.9770 P   0  0  0  0  0
  1 15  1  0  0  0
  2 16  1  0  0  0
  3 19  1  0  0  0
  4 19  1  0  0  0
  5 20  1  0  0  0
  6 20  1  0  0  0
  7 14  2  0  0  0
  8 19  2  0  0  0
  9 20  2  0  0  0
 10 11  1  0  0  0
 10 17  1  0  0  0
 11 19  1  0  0  0
 12 17  1  0  0  0
 12 18  1  0  0  0
 13 18  1  0  0  0
 13 20  1  0  0  0
 14 18  1  0  0  0
 15 16  1  0  0  0
 15 17  1  0  0  0
 16 18  1  0  0  0
M  END
>  <MOLID> (1frpA1)
1frpA1

>  <SMILES_CANONICAL> (1frpA1)
O=C[C@]1(O[C@@H]([C@H]([C@@H]1O)O)COP(=O)(O)O)OP(=O)(O)O	

>  <FINGERPRINT> (1frpA1)
0000000000000101000000000000000000000001000000000000000000000000000000000000000000000101000100000000000100000001000010100000000000000000001010000000000001000101000000000000000000000000000000000000000000000000011010000000000000000000000000000000000000000000000000000000000001000000000000000000000100000000000000000010000000000000000000000000000000000000010000000000000011010000000000000001010010000000100000000010100010000010100000100000000010100000000000000000100000000000000000000010100000101010100010100000100000000000000010100000000000100000100000000000000000000000000000000000000101000000001000000000000000000000000000000101000000001011000000000000000001000000001000000000010001000010001010100010000000000101000000000000000000000000000010000000000000000000000101000000000000000010000001000000000000000000000000000000000000000000000101100000000000000000000000000010100000000001000000000010000000000000000000000000001000000000000000000000000000000010000101000000000111000000000000000000000000000000000000001000000000000000

>  <MACCS166> (1frpA1)
000000000000000000000000000010000000000000100001000001001000000000000001000000000010000011100001000001000100000100000001001101100111000111110010010101011110101000011000

>  <OB_MW> (1frpA1)
337.98

>  <OB_logP> (1frpA1)
-2.7792

>  <OB_PSA> (1frpA1)
219.9

>  <OB_MR> (1frpA1)
56.6328

>  <OB_ATOMIC_CHARGES> (1frpA1)
-0.217498239 -0.2145257197 -0.1145334248 -0.1145334248 -0.1144860106 -0.1144860106 -0.2828691459 -0.2223850066 -0.2223109865 0.1859147423 -0.2675404873 -0.3234502631 -0.2393930737 0.2660887075 0.2170037499 0.2435231634 0.181079241 0.2869979146 0.532671931 0.534732343

>  <MCT_HBD> (1frpA1)
6

>  <MCT_HBA> (1frpA1)
12

>  <ENSEMBLE_TOTAL> (1frpA1)
50

>  <ENSEMBLE_COORDS> (1frpA1)
-2.4167 1.3044 -1.1546 -2.4729 -1.7205 -0.7619 -1.5788 2.4465 2.2222 0.8186 3.4170 2.6296 1.2143 -2.9378 2.2735 2.4756 -1.2319 0.7618 1.3404 -2.5885 -2.7181 -0.9891 4.7809 1.6076 2.0245 -3.5666 0.0219 0.6057 1.7202 0.0604 -0.0209 2.9863 0.1808 0.7544 -0.2487 -1.2602 0.0415 -2.0450 0.1264 0.2335 -2.3607 -2.2548 -1.4223 0.4404 -0.6399 -1.4832 -0.8904 -1.3311 -0.0483 0.9274 -1.0478 -0.0729 -1.4083 -1.1314 -0.4544 3.4385 1.6560 1.4508 -2.4634 0.7595
-2.9849 0.6059 -1.2887 -2.0078 -2.1746 -2.0502 -1.3068 3.7820 2.5806 1.2639 4.1868 2.3407 1.4039 -1.4282 1.7210 2.6225 -2.9165 -0.0586 2.1283 -0.9219 -2.5188 -0.2410 4.1752 0.3641 0.8907 -3.8356 1.4553 -0.8905 1.1644 1.0805 0.2195 1.9722 1.4353 0.4294 -0.0212 -0.5478 0.0658 -2.3608 -0.3555 1.0624 -1.4906 -2.3427 -1.9171 -0.1490 -0.7546 -1.2742 -0.9914 -1.8173 -0.7683 0.7540 -0.3697 0.0969 -1.2390 -1.2181 -0.0278 3.5399 1.6454 1.2352 -2.6514 0.6991
-3.0519 0.2638 -0.4656 -2.0007 -2.2462 -1.7951 -1.3154 4.5592 1.0413 -0.3632 2.8610 2.7948 1.1073 -2.0142 2.0225 2.8558 -2.3268 0.0955 1.3039 -0.3267 -2.9566 1.0935 4.5115 1.6455 1.4972 -4.2165 0.9539 -0.7953 1.8571 -0.2709 0.2763 2.6163 0.2641 0.4866 -0.1727 -0.2550 0.2793 -2.5466 -0.4131 1.0013 -1.3045 -2.2898 -1.8622 -0.4457 -0.2040 -1.3110 -1.0626 -1.4569 -0.7162 0.4368 0.2514 0.1325 -1.2973 -1.0647 -0.0529 3.6549 1.4376 1.4351 -2.8009 0.6652
-3.0909 0.3419 -1.9106 -2.1321 -2.5284 -1.4939 0.1224 2.1224 2.8418 2.0073 3.5425 1.7204 0.7440 -2.6978 2.5289 1.5536 -0.4410 1.5118 1.2681 -1.5833 -3.1401 -0.3213 4.3847 1.9058 2.3316 -2.6345 0.6292 -1.0304 1.6999 0.1652 0.0812 2.5754 0.2442 0.3048 0.0421 -0.9579 -0.0469 -2.0337 0.1353 0.9617 -1.9875 -2.0289 -2.0469 -0.1580 -1.1003 -1.4002 -1.3484 -1.7442 -0.8981 0.8239 -1.0600 -0.0279 -1.3410 -1.0997 0.4464 3.1807 1.6819 1.1735 -1.9599 1.1711
-2.5345 1.0058 -1.4067 -2.2142 -2.0435 -1.3347 0.4525 3.2024 3.0469 0.4682 4.6801 0.8839 1.1030 -3.0415 2.2073 2.3906 -1.1485 0.9655 0.5391 -3.1784 -2.7857 -1.5779 4.4035 2.2645 2.2533 -3.4614 0.0538 0.1061 1.4875 0.5534 -0.8815 2.4377 0.9154 0.7795 -0.0971 -1.0837 0.1437 -2.1291 -0.0343 0.8185 -2.0668 -2.3624 -1.5553 0.1959 -0.7844 -1.2862 -1.0186 -1.6236 -0.2165 0.9047 -0.8054 0.1318 -1.3674 -1.2232 -0.4115 3.6934 1.7894 1.4911 -2.4590 0.7640
-3.2758 0.0811 -1.4102 -1.8963 -2.6378 -1.5674 0.6667 1.8154 2.7211 1.8933 3.7884 1.5275 -0.0727 -1.0919 1.8816 2.3523 -0.9287 0.8934 1.8725 -2.0220 -2.7815 -0.4342 4.0189 2.3636 1.3999 -3.0748 1.6917 -1.1628 1.6582 0.3431 -0.1128 2.6121 0.3352 0.2453 0.1451 -0.8959 0.4746 -2.2026 -0.4360 0.9178 -1.2840 -2.5972 -2.0490 -0.3431 -0.8517 -1.3767 -1.3396 -1.7506 -1.0415 0.7800 -0.8790 0.0801 -1.2042 -1.3541 0.4749 3.0764 1.7507 1.0442 -1.8468 1.0159
-2.7130 0.7972 -0.7050 -2.2424 -2.1886 -1.1479 0.0243 4.3672 0.0550 -1.5599 4.7194 2.1038 1.3800 -3.5756 1.9410 2.5069 -1.4666 0.9067 0.7911 -1.3399 -3.4060 0.7619 3.8827 2.3852 2.3527 -3.6185 -0.3359 0.0415 1.3093 0.9935 -0.8940 2.3011 1.3845 0.6869 -0.1595 -0.7703 0.2075 -2.3690 -0.0477 0.6832 -1.9509 -2.3533 -1.6310 -0.0209 -0.3032 -1.3808 -1.0862 -1.3305 -0.3385 0.7654 -0.3659 0.0785 -1.4147 -1.0858 -0.3821 3.8133 1.5028 1.6271 -2.7653 0.5791
-3.4066 0.1154 -1.4468 -2.1315 -2.6472 -1.2850 1.7008 4.0480 1.2376 -0.6257 4.0895 2.4280 1.3849 -3.1660 2.0705 1.7771 -0.6651 1.4566 1.7786 -1.0186 -2.5745 0.7652 2.0291 2.3399 2.6068 -2.5183 0.0174 -1.3398 1.7679 0.2864 -0.3148 2.7449 0.2004 0.0787 0.1048 -0.7291 0.1293 -2.1481 0.0253 0.7783 -1.6266 -2.2255 -2.2317 -0.2964 -0.7783 -1.5451 -1.3900 -1.5416 -1.1806 0.7828 -0.8458 -0.1087 -1.2750 -1.0614 0.3870 3.1925 1.5693 1.4977 -2.1236 0.8567
-2.5359 1.1666 -1.5536 -2.4161 -1.7549 -0.6644 -0.0738 2.4571 3.2689 0.2533 4.3852 1.5335 1.2487 -2.7405 2.4451 2.2497 -0.6928 1.1809 0.6583 -2.1997 -3.2042 -1.7436 2.8982 1.4836 2.3213 -2.9916 0.2263 0.3585 2.1468 -0.6236 0.4191 1.8796 0.7688 0.7475 -0.1666 -1.2251 0.0765 -1.8809 0.2798 0.4124 -2.3969 -2.0240 -1.5038 0.4633 -0.8935 -1.4617 -0.9679 -1.3425 -0.1536 0.9385 -1.3729 -0.0266 -1.3558 -1.0314 -0.3225 2.9051 1.7502 1.4923 -2.0930 0.9981
-3.0452 0.3791 -1.1408 -2.0272 -2.4250 -1.7574 1.3837 4.3056 1.9946 -0.6770 4.3721 0.3891 1.0696 -1.5381 1.9903 2.8081 -2.1610 0.1313 1.3413 -0.7161 -3.1706 -0.8837 3.6495 2.7642 1.4625 -3.8858 1.3002 -0.8371 1.2239 1.0034 0.2793 2.0727 1.2147 0.4264 -0.1049 -0.5595 0.2293 -2.4663 -0.3190 1.0079 -1.5662 -2.3593 -1.9196 -0.3036 -0.6279 -1.3273 -1.2028 -1.6724 -0.7791 0.6596 -0.3973 0.0994 -1.3505 -1.1823 -0.0033 3.5958 1.6185 1.3921 -2.5380 0.7801
-3.2627 0.4133 -0.7485 -2.1728 -2.2901 -1.6278 0.7997 3.5643 -0.3331 -1.1908 4.1925 1.2492 1.3038 -4.0088 1.3851 1.5926 -1.4414 1.7212 1.8145 -0.6475 -2.4823 1.1647 4.1988 2.0386 2.6136 -2.6386 -0.2099 -1.0155 1.2291 1.3438 0.1610 1.9632 1.6383 0.2423 0.0047 -0.3200 0.1243 -2.3697 -0.2640 0.7822 -1.2662 -2.2793 -2.0940 -0.2625 -0.3319 -1.5092 -1.0564 -1.4626 -0.9775 0.7202 -0.0793 -0.0602 -1.1968 -1.0345 0.2489 3.4931 1.1704 1.4351 -2.6013 0.6267
-2.4726 1.2238 -1.1684 -2.2854 -1.7831 -0.6629 0.6878 3.2627 2.6845 -1.4639 4.5496 1.9461 1.6538 -2.6894 2.1638 2.6784 -0.8766 0.5986 0.1326 -3.4124 -2.3791 -1.4582 2.0832 2.2359 2.3823 -3.2369 -0.1395 0.5721 1.8627 -0.0642 -0.2449 2.9790 0.2461 0.7900 -0.0971 -1.3857 0.2901 -1.8868 0.0961 0.4304 -2.2300 -2.3005 -1.4002 0.4484 -0.6699 -1.3944 -0.9049 -1.3181 -0.0807 1.0233 -1.1398 0.0574 -1.3103 -1.1724 -0.6377 3.1858 1.7862 1.7631 -2.1909 0.6431
-2.9110 0.8684 -1.1420 -2.3197 -2.0309 -0.4095 0.0203 4.3204 1.7170 -1.9369 2.5864 1.8795 2.1612 -0.3825 1.1621 2.8249 -2.4001 -0.3690 1.1933 -2.0697 -3.0387 0.1689 2.3092 3.1676 1.8529 -2.7295 1.8869 -0.0729 2.1970 -0.6078 0.3226 1.9131 0.7237 0.5259 -0.0486 -1.3009 0.2821 -1.9221 0.1508 0.3253 -2.2705 -2.2034 -1.7176 0.2833 -0.6630 -1.5672 -1.1178 -1.1783 -0.5184 0.9331 -1.3055 -0.0653 -1.3357 -1.0899 -0.3453 2.7709 1.8978 1.7766 -1.8743 0.7227
-2.6055 1.0812 -0.8293 -2.3866 -1.9138 -0.3195 -1.3653 4.6477 1.7081 -1.3338 2.1075 2.3193 2.6874 -2.9176 -0.3338 1.7810 -2.8561 2.1088 1.0832 -2.5727 -2.8958 0.7423 3.4799 2.3117 2.2793 -0.7739 0.8669 0.5282 1.7756 -0.1844 -0.2380 2.9388 0.0806 0.6163 -0.2764 -1.3839 0.2465 -2.0582 0.1606 0.0968 -2.4781 -2.1821 -1.4807 0.3079 -0.4618 -1.5601 -1.0575 -1.0779 -0.2306 0.8567 -1.1148 -0.1034 -1.4744 -1.0812 -0.5134 3.2933 1.6191 1.7563 -2.1099 0.6893
-2.7590 0.6624 -0.5640 -2.0564 -2.0727 -1.7217 1.2818 3.8545 1.7337 -0.5413 5.1453 0.3638 1.1567 -4.3089 1.3473 1.7251 -1.7977 1.7451 0.9565 -2.4296 -3.0819 -0.9082 4.4759 2.7273 2.6347 -3.0590 -0.2008 -0.3710 1.9617 -0.0502 -0.9488 2.6480 1.0500 0.6676 -0.1777 -0.3765 0.1930 -2.5111 -0.2770 1.0149 -1.4912 -2.3008 -1.7061 -0.2172 -0.2367 -1.2337 -0.9573 -1.4541 -0.4485 0.4825 0.2416 0.1786 -1.3360 -1.0629 -0.2921 4.0379 1.4948 1.4561 -2.9098 0.6229
-2.1166 0.9532 -2.5800 -1.9554 -2.0693 -2.3395 -1.6198 3.6679 2.5438 0.9344 3.6565 3.0931 1.8479 -3.2343 1.0460 2.9530 -1.1165 -0.0305 -1.0239 -2.0558 1.4531 0.0521 4.7293 1.0347 3.1175 -3.3553 -1.0762 -1.0317 1.7964 0.2790 0.0466 2.2400 1.0857 0.2130 -0.2287 -0.1553 0.8966 -2.2689 -1.2131 -0.9695 -2.2660 0.2513 -1.6848 0.1742 -1.4843 -1.0224 -1.0859 -1.9544 -0.5259 0.8383 -0.7757 -0.1762 -1.4675 -0.7568 -0.1481 3.5978 1.9123 2.2132 -2.5053 -0.3333
-2.6110 0.5600 -2.4593 -2.2115 -2.3552 -1.6517 -1.0947 4.5984 1.7854 -0.3730 2.3647 2.9462 2.1435 -3.1684 0.9149 2.9078 -0.9361 -0.2258 -0.4142 -1.5550 1.7881 1.2954 3.9792 2.0616 3.1023 -3.1259 -1.3662 -1.1238 1.9107 0.0292 0.0106 2.6909 0.3671 0.2221 -0.0368 -0.4023 0.8021 -2.2397 -1.1478 -0.7123 -1.9486 0.6707 -1.9466 0.0233 -1.3339 -1.2967 -1.2829 -1.6749 -0.7371 0.8616 -0.9877 -0.1999 -1.3841 -0.6346 -0.0102 3.4185 1.7943 2.2472 -2.3745 -0.4733
-1.8637 1.2614 -2.3196 -1.4596 -1.7155 -2.8408 -1.5233 4.2786 1.7022 0.5791 3.7348 3.1553 1.9265 -3.0663 1.0847 2.8213 -0.7029 0.3900 -1.8194 -2.5894 0.5040 0.6599 3.6635 0.6737 3.4944 -2.7629 -0.8123 -1.4870 1.3596 0.8116 -0.5872 1.8252 1.8050 -0.0498 -0.4775 0.2052 1.1687 -1.9959 -1.1991 -0.8867 -2.6519 -0.2824 -1.6111 0.2176 -1.4013 -0.7334 -0.8296 -2.0205 -0.7023 0.6987 -0.2961 -0.0947 -1.4835 -0.8115 -0.2005 3.3792 1.8005 2.3687 -2.1432 -0.1485
-2.6996 0.7261 0.0582 -1.5678 -0.9237 -2.2306 -1.9575 3.8240 0.5521 0.1090 4.3979 2.0560 0.7623 -3.3338 1.5592 2.6419 -3.1761 -0.2597 2.0726 0.4951 -1.5389 0.2660 4.3481 -0.4222 0.7700 -4.7905 -0.4440 -0.5127 1.3083 1.6940 0.0617 2.1492 0.7072 0.5727 -0.5739 0.6266 0.1863 -2.4150 -0.8392 1.5166 -0.5920 -1.5716 -1.7221 -0.2891 0.0841 -0.8950 -0.2834 -1.1684 -0.6743 -0.1006 1.1618 0.3541 -1.0138 -0.7170 -0.3674 3.6910 0.6991 1.0831 -3.4478 -0.0068
-0.5365 1.8146 -1.3942 0.3969 -0.6687 -2.8571 -1.4280 4.7955 1.1820 -0.2697 3.6494 3.2243 1.6598 -1.7662 1.7691 2.8261 -1.0878 -0.4780 -1.2007 -3.2823 -2.4225 0.6596 3.4766 0.9230 2.8785 -3.4115 0.3718 -0.7309 0.9662 1.2728 -1.4399 2.1897 1.3939 -1.0107 -1.2431 0.4048 0.6998 -2.6466 -0.5179 -1.3959 -2.4767 -1.5254 -0.9719 0.4847 -1.2290 0.1433 -0.4817 -1.4859 -1.3839 0.1352 0.1920 -0.3358 -1.7189 -0.7676 -0.5847 3.5186 1.6587 2.0246 -2.2470 0.2853
-1.4866 1.7296 -1.2580 -0.2775 -0.4868 -2.8972 -2.3459 4.6671 1.3742 -0.1220 4.3831 2.7129 1.8815 -2.8357 1.5309 3.8481 -2.7983 -0.1808 -1.4795 -2.7742 -1.7846 -0.2154 4.0763 0.2452 1.8564 -4.2279 -0.5348 -0.2916 1.3649 1.2557 -1.2875 2.2952 1.6501 -0.0806 -0.9388 0.6686 1.5540 -1.7746 -0.8686 -0.7036 -2.5840 -0.8631 -1.2937 0.3868 -0.8799 -0.0808 -0.1957 -1.5357 -0.9748 0.1913 0.5915 0.2093 -1.3951 -0.6634 -0.9682 3.8533 1.4600 2.2584 -2.9365 -0.0229
-2.0896 1.2286 -1.6699 -2.1774 -1.8124 -1.7468 -1.7858 5.1405 1.3861 -0.6517 3.6602 3.2173 1.9218 -4.0644 0.1831 3.1304 -1.8005 -0.3466 -0.2144 -2.2538 1.6603 0.6156 4.5192 1.2524 2.8642 -3.5772 -2.0541 -0.2413 1.5538 0.9795 -1.0389 2.7119 0.7971 0.6699 -0.3662 -0.1104 0.8013 -2.3440 -1.4584 -0.5747 -2.3116 0.4944 -1.4963 0.2977 -0.7864 -1.0946 -0.9378 -1.5315 -0.1438 0.8016 -0.3288 -0.0038 -1.5075 -0.6523 -0.6780 4.0138 1.6544 2.1872 -2.9518 -0.9393
-1.0214 1.2435 -2.6026 -0.7881 -1.7674 -2.9878 -1.8219 3.0645 1.8496 0.2119 3.1865 3.4842 1.9953 -1.4012 1.6535 2.5755 -0.6079 -0.7763 -2.7203 -2.3323 -0.3351 0.2455 4.3310 1.2802 3.1599 -2.8760 0.0376 0.1555 1.6051 -0.1151 0.4244 1.8403 1.2576 -0.5577 -0.6348 0.4113 0.7535 -2.4733 -0.4018 -1.5365 -2.6237 -0.4092 -1.2748 0.2065 -1.6813 -0.3624 -0.9623 -1.9130 -0.9572 0.5835 -0.2457 -0.3933 -1.6579 -0.5723 -0.2236 3.1344 1.9425 2.1357 -1.8585 0.1237
-3.2023 0.2451 -0.3905 -1.5040 -1.2232 -2.4454 1.4347 2.6908 1.2343 0.4601 4.1720 -0.6854 0.1891 -3.0899 1.6232 2.5406 -2.3946 0.6970 2.4386 0.1272 -1.0870 -0.4068 4.3188 1.6378 1.3418 -4.3990 -0.1378 -1.3547 1.3770 1.3907 -1.0028 2.2714 0.3470 0.1913 -0.2897 0.5743 0.4113 -2.2120 -0.8428 1.3248 -0.1296 -1.5170 -2.0377 -0.5271 -0.2047 -1.1014 -0.4018 -1.3714 -1.1760 -0.0609 0.9497 0.2224 -0.8113 -0.7578 0.1063 3.3818 0.6633 1.1248 -3.0450 0.3226
-3.0531 0.3099 -1.1785 -1.3919 -2.1387 -1.9503 0.3227 4.4748 2.7010 1.3332 3.4558 0.5162 1.2708 -3.8898 -1.3494 0.5900 -4.6071 1.0632 2.5549 -0.4743 -0.9952 -0.5775 5.0517 0.4583 2.4645 -3.0372 0.6685 -1.3380 2.0372 0.1156 -1.0751 2.7622 1.3069 0.1580 0.1786 0.2961 0.1610 -2.1561 0.2976 1.4521 -0.8334 -1.3774 -2.0286 -0.3521 -0.4698 -0.9909 -0.8988 -1.4084 -1.2204 0.5647 0.4269 0.2276 -1.0076 -0.5144 -0.0151 3.9598 1.2213 1.1559 -3.3997 0.1718
-2.0247 1.2094 -1.6837 -2.1300 -1.8294 -1.7768 -1.6770 5.1974 1.2027 -0.9532 3.6521 3.1818 2.0134 -4.1006 0.1432 3.1466 -1.7640 -0.2030 -0.8858 -2.0709 1.5569 0.6757 4.4473 1.4725 3.0274 -3.4448 -2.0181 -0.2345 1.5487 0.9801 -0.9714 2.7327 0.7220 0.6664 -0.4227 -0.0281 0.8870 -2.3360 -1.4483 -0.5465 -2.4296 0.4398 -1.4545 0.2682 -0.7957 -1.0426 -0.9650 -1.5404 -0.1101 0.7570 -0.3021 0.0298 -1.5474 -0.6434 -0.6923 4.0113 1.6421 2.2766 -2.9139 -0.9014
-3.2594 0.2390 -0.1487 -1.7183 -1.3094 -2.2598 0.1801 4.3232 -0.6877 -0.2137 4.2733 1.8962 1.2563 -4.5902 -0.0744 1.0604 -2.7423 1.7524 2.2343 0.2388 -1.2190 1.3871 2.7253 0.7837 2.6890 -2.5689 -0.1249 -1.3106 1.4090 1.4852 -1.0384 2.2815 0.3990 0.1870 -0.2660 0.5934 0.2750 -2.2614 -0.7167 1.1675 -0.2280 -1.5887 -2.0924 -0.5386 -0.0093 -1.2393 -0.4606 -1.2407 -1.1501 -0.0363 1.0633 0.1235 -0.8547 -0.7087 0.1100 3.3790 0.6055 1.3519 -3.0126 0.1997
-1.9320 0.8670 -2.8365 -2.0099 -2.0989 -2.1413 -1.0749 2.6745 2.8836 1.2487 3.8405 2.6226 3.0429 -3.6042 -0.5395 1.9272 -2.3735 1.4727 -1.2996 -3.0828 0.7632 -0.7944 4.7554 1.5465 2.9526 -1.1298 -0.4270 -0.9458 1.9987 -0.0354 0.1520 2.6735 0.5556 0.2233 -0.1013 -0.1730 0.8072 -2.3143 -0.9120 -1.0692 -1.9092 0.5161 -1.6040 0.2213 -1.6237 -1.0167 -1.1332 -1.8821 -0.4384 0.9108 -0.9525 -0.2220 -1.3913 -0.6195 -0.1381 3.5133 1.8891 2.1909 -2.3164 -0.1069
-1.9171 1.1821 -2.4020 -1.4587 -1.7999 -2.8004 -1.5810 4.2780 1.7766 0.5082 3.6656 3.2212 3.6214 -2.8545 -0.8785 1.9442 -3.0022 1.1138 -1.7452 -2.4989 0.6313 0.6175 3.7330 0.7414 2.8318 -0.8217 0.2982 -1.5094 1.4020 0.7309 -0.6280 1.8267 1.7581 -0.0046 -0.3944 0.1552 1.1859 -1.9798 -1.1915 -0.8545 -2.5957 -0.1997 -1.6265 0.1875 -1.4421 -0.7367 -0.8671 -2.0300 -0.7156 0.7377 -0.3703 -0.0714 -1.4550 -0.8026 -0.2541 3.3815 1.8402 2.3936 -2.1249 -0.1496
-2.5286 0.7156 -2.2665 -2.0971 -2.2763 -1.8658 -0.2707 5.0456 1.3877 -1.6127 3.3001 2.8043 3.5441 -2.3413 -1.6830 2.4292 -3.2374 0.4924 -0.5650 -3.5917 0.4076 0.8586 3.4945 2.9640 2.7775 -0.8030 0.1009 -1.1691 1.9000 0.2902 -0.0176 2.4957 0.8651 0.0595 -0.1629 0.0177 1.0045 -1.9244 -1.2866 -0.5846 -2.3713 0.4689 -1.9219 0.0323 -1.1882 -1.2126 -1.1960 -1.6780 -0.7425 0.8120 -0.6634 -0.1433 -1.4309 -0.6246 -0.2388 3.5761 2.0260 2.4313 -2.0366 -0.5688
-1.6529 1.3221 -2.4837 -1.1421 -1.6242 -3.0074 0.3775 3.6353 3.2683 0.3713 3.9258 0.6762 2.5840 -1.0659 1.0105 3.7529 -2.6766 -0.6728 -1.8365 -2.5023 0.3014 -1.7155 4.1136 2.0230 1.8768 -3.4378 0.7531 -1.5519 1.3972 0.6755 -0.7535 1.8214 1.7677 -0.0219 -0.4030 0.1690 1.3063 -1.9104 -1.1431 -0.8405 -2.5710 -0.4007 -1.4674 0.2760 -1.5549 -0.5188 -0.7457 -2.1010 -0.6677 0.7612 -0.3702 0.0148 -1.4103 -0.8491 -0.4679 3.3880 1.9296 2.3529 -2.2935 0.0086
-0.5277 1.0604 -2.7579 -1.1881 -1.9194 -2.5487 -2.1228 4.0225 1.9838 -0.1630 3.6638 3.6744 2.7903 -1.0747 0.1200 2.3764 -2.4330 -2.0815 -2.0802 -3.1259 0.1334 0.2240 4.6364 1.4220 2.9247 -3.5485 0.0607 -0.9436 1.8440 0.3125 -0.2814 2.2008 1.5145 -0.0002 -0.3645 0.4599 0.6438 -2.5956 -0.1114 -1.5951 -2.0125 0.2629 -0.8897 0.2950 -1.6264 -0.3646 -1.1051 -1.7473 -0.1436 0.7792 -0.4020 -0.2807 -1.5453 -0.3036 -0.5696 3.6527 2.1240 2.1912 -2.4300 -0.4895
-2.2691 0.4533 -2.8703 -1.9996 -2.4068 -1.8503 -1.2560 3.5624 2.3714 0.5618 1.6785 2.3151 3.2631 -3.2069 -0.4819 2.0813 -2.0745 1.5495 -1.5918 -1.2828 1.4886 1.1220 4.0524 1.8446 2.8890 -0.7584 -0.4056 -1.2351 2.0041 -0.2878 -0.1684 2.8602 0.0869 0.1122 0.0136 -0.2613 0.8799 -2.1982 -0.7922 -0.9248 -1.9145 0.6843 -1.8159 -0.0099 -1.6150 -1.1053 -1.3224 -1.7584 -0.6883 0.8585 -1.1064 -0.2239 -1.3503 -0.5278 0.0874 3.0602 1.6559 2.2816 -2.0184 -0.0395
-2.7896 1.0828 -1.7651 -0.4396 -0.2625 -3.1366 0.8226 3.6820 0.8588 -0.8506 3.2436 2.8170 3.7164 -0.5660 0.4428 2.6557 -2.8862 -0.0823 -0.5068 -3.3801 -0.7482 0.7640 1.5074 2.0548 1.7241 -1.3827 1.6691 -2.0716 1.0243 0.9692 -1.1449 2.0016 0.5241 -0.7188 -0.8859 0.3908 1.3844 -0.6745 -0.7197 -0.1148 -2.4051 -1.3704 -2.0809 -0.0700 -1.3706 -0.6360 0.0076 -1.7684 -1.9744 -0.2359 0.1322 0.0106 -0.9963 -0.8353 -0.0862 2.5748 1.5779 2.3364 -1.3788 0.3596
-3.1548 0.3540 -0.6379 -1.4150 -1.3717 -2.4373 1.4478 2.7703 1.4014 0.8322 4.1066 -0.7570 1.0614 -4.6848 0.2684 0.5051 -2.8153 1.9984 1.8192 0.7208 -1.3803 -0.4054 4.4319 1.3713 2.4934 -2.6738 0.5044 -1.3811 1.5108 1.1940 -0.8167 2.2954 0.1543 0.1162 -0.3017 0.6265 0.2626 -2.3526 -0.5810 1.4282 -0.4363 -1.3611 -2.0615 -0.4701 -0.3029 -1.0368 -0.4931 -1.3998 -1.2576 0.0341 0.8778 0.2032 -0.9396 -0.6516 0.2445 3.4212 0.5671 1.1151 -3.1061 0.5453
-0.7434 1.6789 -1.4808 -0.0450 -0.8698 -3.0006 0.7251 3.6231 0.5930 -1.5683 4.6844 1.2557 1.8864 -2.2633 1.7291 2.6589 -0.7274 -0.2486 -2.4896 -2.4722 -1.4561 -0.0319 3.7338 2.9601 3.2548 -3.1318 -0.1470 -0.4133 0.9801 1.2027 -1.2255 2.1040 1.5066 -0.7174 -1.2908 0.5063 0.8872 -2.6359 -0.6716 -1.3128 -2.7384 -1.2697 -1.0840 0.3437 -1.1838 -0.0030 -0.5988 -1.6201 -1.1985 0.0527 0.3034 -0.2566 -1.8019 -0.7455 -0.5103 3.5336 1.6106 2.1871 -2.2042 0.1563
-2.0081 0.6078 -3.0265 -2.0222 -2.2614 -1.9851 -0.2551 1.7200 2.5231 1.5042 3.6235 2.1922 3.1284 -3.3747 -0.3963 1.8318 -2.3899 1.6411 -1.8015 -1.2029 1.3119 -0.9349 4.0645 2.0351 2.8410 -0.9307 -0.1081 -1.0150 2.1082 -0.4029 0.0943 2.7990 0.1501 0.1490 0.0060 -0.2596 0.8149 -2.2387 -0.7829 -1.0508 -1.8573 0.6045 -1.6770 0.1194 -1.7423 -1.0591 -1.2434 -1.8408 -0.5195 0.9013 -1.1643 -0.2515 -1.3329 -0.5632 0.0720 3.0734 1.7287 2.1593 -2.1912 0.0853
-2.6433 0.4813 -1.7405 -1.7281 -2.3710 -1.1744 -1.1000 5.1525 0.9066 -1.2640 3.7329 3.1025 2.8780 -3.2011 -2.5318 0.5741 -4.0467 -1.6561 0.8603 -1.8682 1.8523 0.8957 4.6646 2.3037 2.4741 -3.5689 -0.1190 -1.1195 1.9396 0.6330 -0.0255 2.7660 0.9948 0.4273 0.2050 0.0239 1.3786 -1.5780 -1.1563 0.0956 -1.9155 0.9005 -1.7789 -0.0171 -0.7389 -0.9831 -1.1756 -1.2646 -0.6844 0.9787 -0.4490 0.2636 -1.1632 -0.3993 -0.3462 4.0888 1.8377 1.8257 -3.1042 -1.3249
-2.2989 1.1988 -1.6481 -1.3501 -1.4614 -2.7473 0.7657 4.3201 1.5384 -1.6935 5.0260 2.0663 3.8585 -2.2720 -1.1054 2.0767 -4.1563 -0.8527 -0.7055 -3.0418 0.8443 -0.6327 3.0756 3.1811 2.3630 -2.3819 0.8707 -0.3245 1.8818 0.2000 -1.2414 2.7952 0.7832 0.1516 -0.4576 0.3538 1.3248 -1.6888 -1.3125 -0.6498 -2.6198 -0.2997 -1.7460 0.1044 -0.9527 -0.7385 -0.6212 -1.7941 -0.9254 0.4956 0.2619 0.0687 -1.3652 -0.7512 -0.6941 3.7810 1.9205 2.3914 -2.6125 -0.5562
-1.0102 0.3263 -3.1133 -1.5897 -2.3466 -1.7298 -1.8493 3.4256 2.0124 0.1633 1.8974 2.6949 2.7730 -0.9618 -0.6658 1.8987 -3.1620 -1.7868 -2.2843 -0.7354 1.2105 0.4471 4.3304 2.2916 3.0108 -3.1748 0.4266 -0.8407 2.1327 -0.4709 0.0684 2.9196 0.2807 0.1955 0.0773 0.2219 0.7116 -2.2512 0.3700 -1.3812 -1.5153 0.9495 -1.1271 0.0251 -1.7377 -0.6230 -1.3592 -1.4560 -0.1588 0.8641 -0.9305 -0.2371 -1.2660 0.0021 -0.2779 3.1695 1.8256 2.1108 -2.3956 -0.3950
-0.1898 1.5126 -2.1437 -0.8358 -1.3900 -2.8644 -1.3100 3.7547 2.9314 0.9365 3.6718 1.5836 2.8536 -4.0420 -0.5485 2.3327 -2.3538 1.3711 -2.1285 -2.6818 0.7239 -0.9546 5.1243 0.8891 2.7273 -1.6010 -0.9701 -1.1371 1.3444 0.9748 -1.2547 2.6866 0.5336 -0.0716 -0.7502 0.5853 0.5669 -2.7897 -0.5224 -1.6741 -2.2233 -0.3133 -0.7155 0.4772 -1.3366 -0.1522 -0.8474 -1.7586 -0.1791 0.5935 0.0764 -0.2873 -1.6628 -0.4946 -0.6536 3.8357 1.4717 2.1269 -2.6587 -0.1886
-0.4123 0.8499 -2.9207 -1.2125 -2.0649 -2.4851 -0.1330 3.8264 3.4028 0.3395 4.8918 1.0660 2.7630 -3.8587 0.4308 2.7568 -1.3055 -0.1034 -2.0190 -1.9887 1.4556 -1.9210 4.0619 1.6958 2.1168 -3.0086 -1.8039 -0.8060 1.9206 0.0636 -0.1638 2.3286 1.2609 0.0030 -0.3280 0.4137 0.4864 -2.6483 0.0525 -1.7032 -1.9333 0.2765 -0.8243 0.2028 -1.7342 -0.3699 -1.2271 -1.7292 -0.0663 0.7474 -0.5412 -0.3465 -1.5462 -0.2517 -0.5107 3.7793 1.8455 2.0229 -2.6996 -0.3943
-1.4313 1.4547 -2.0611 -1.8709 -1.5545 -2.1964 -1.0848 3.5211 3.1301 0.6575 4.6463 1.5280 3.0170 -3.9584 -1.5469 1.5423 -4.1426 0.5932 -1.3491 -1.8136 1.3016 -1.7879 4.9791 1.2455 2.9650 -2.1480 0.1440 -0.1485 1.5879 0.9277 -0.9044 2.7475 0.6252 0.7076 -0.4504 0.0403 0.9289 -2.4195 -1.2986 -0.8210 -2.2670 0.2979 -1.1553 0.4670 -1.0875 -0.7564 -0.8157 -1.7518 0.1178 0.8068 -0.3400 0.0509 -1.5031 -0.6720 -0.8018 3.9920 1.6248 2.1244 -3.1296 -0.5038
-1.4206 1.0927 -1.8608 -1.9815 -1.8720 -1.4026 -1.4223 5.3101 0.7953 -2.0277 3.4521 2.5299 2.5626 -4.1586 -1.7283 3.2998 -2.0229 -0.4253 -1.1924 -3.1292 1.4179 0.2706 4.3978 2.3655 1.9006 -1.8907 -2.4838 0.0118 1.6562 1.0073 -0.4458 2.9017 0.5044 0.8194 -0.5049 0.3870 0.7841 -2.7756 -0.4230 -0.7509 -2.0184 1.1680 -1.1092 0.2799 -0.7474 -0.8091 -1.1220 -1.1874 0.2177 0.6951 -0.1429 0.0456 -1.6302 -0.0511 -0.8756 4.0179 1.5698 2.1227 -2.6789 -1.2923
-1.9114 1.2305 -1.7740 -2.2093 -1.7996 -1.8046 0.8308 4.4588 1.4874 -1.6919 5.1126 1.2866 2.8534 -4.0049 -1.7045 2.4015 -3.0267 0.6734 -0.7847 -2.1744 1.6809 -0.8872 3.5606 3.0517 3.0376 -1.5743 -1.2479 -0.1982 1.4969 0.9648 -0.9328 2.6826 0.7139 0.6084 -0.5277 0.0111 0.7337 -2.5325 -1.3042 -0.7628 -2.4343 0.4881 -1.4361 0.2750 -0.8466 -1.0767 -1.0002 -1.5495 -0.0837 0.6918 -0.3090 -0.0863 -1.6232 -0.5905 -0.6730 3.9373 1.6723 2.2686 -2.7483 -0.8994
-1.3721 1.7434 -1.7133 -2.0512 -1.2191 -1.8746 -0.8959 3.3994 3.2383 -1.2139 5.2320 1.4030 3.1847 -2.0791 -0.4315 2.6252 -4.0539 -2.0370 -0.3983 -2.1695 1.5995 -2.4061 3.0562 1.2894 1.6956 -3.9543 0.2557 0.3383 1.6464 1.0388 0.0446 3.0159 0.8161 0.9205 -0.3943 -0.0418 0.7515 -2.3503 -1.4195 -0.7194 -2.0687 0.4253 -1.0211 0.6973 -0.8298 -0.8272 -0.5832 -1.5850 0.3733 0.9156 -0.2832 0.0736 -1.3705 -0.6560 -1.1477 3.6544 1.6760 2.0457 -3.1176 -0.8703
-1.6252 1.5618 -1.7144 -2.1461 -1.4321 -1.5328 -0.3745 3.7282 3.0743 -1.7084 5.0092 1.2275 3.2117 -2.0788 -0.4406 2.6607 -4.0484 -2.0562 -0.6670 -1.4586 1.6804 -2.2228 2.6482 1.8038 1.7653 -3.9832 0.2513 0.4772 1.7831 0.7628 -0.1009 3.0598 0.5522 1.0005 -0.3120 -0.2243 0.7652 -2.3824 -1.3910 -0.4508 -2.0157 0.6155 -1.0917 0.6165 -0.8098 -0.9325 -0.7171 -1.4779 0.3517 0.9463 -0.4895 0.1311 -1.3751 -0.6249 -1.1274 3.5821 1.6668 2.0839 -3.1318 -0.8733
0.0111 0.9126 -2.8400 -1.0374 -1.9602 -2.5610 -0.1008 3.8495 3.4574 -0.2005 4.8797 1.0579 2.8006 -1.4314 0.1258 2.2586 -3.0657 -1.8486 -2.6064 -1.1848 0.3649 -2.1380 3.6695 2.0482 2.6283 -3.8823 0.4602 -0.7381 1.8575 0.1393 -0.1744 2.2780 1.3702 0.0705 -0.3835 0.4651 0.4868 -2.7026 0.0557 -1.6692 -1.9456 0.1788 -0.5599 0.2540 -1.7274 -0.1905 -1.1989 -1.7311 0.0875 0.7330 -0.4445 -0.2839 -1.5582 -0.2665 -0.6935 3.6652 1.9800 2.0492 -2.7858 -0.2844
-1.8828 1.4397 -1.4761 -2.4208 -1.5019 -0.9004 -0.1136 3.8683 2.8286 -1.3460 5.2127 0.9568 2.0532 -4.4036 -2.0262 2.2232 -3.5758 0.4390 0.2106 -1.6891 1.9881 -2.0730 2.9306 1.6119 2.8796 -2.1322 -1.4816 0.5925 1.8142 0.5963 0.0609 3.1013 0.3237 0.9293 -0.3736 -0.2951 0.4275 -2.5444 -1.1923 -0.3755 -1.9476 0.9483 -1.2217 0.5655 -0.5835 -1.2057 -0.8277 -1.1334 0.2590 0.8770 -0.5431 -0.0152 -1.4387 -0.4279 -0.8952 3.7507 1.4342 1.9139 -3.1253 -1.0673
-0.5181 1.5765 -1.7206 -1.6714 -1.2490 -1.9403 -0.7947 5.2452 1.1434 -2.3303 3.2160 0.5523 3.0988 -2.0947 -0.3655 1.8709 -2.0774 -2.6806 -1.1448 -2.4606 1.8669 -1.4646 3.5777 2.8575 2.3803 -4.1859 -1.4842 0.1414 1.4453 1.4670 0.1979 2.8267 1.1505 0.7339 -0.7210 0.6747 0.5673 -2.8057 -0.5116 -1.2230 -2.0210 0.7294 -0.6650 0.5817 -0.7271 -0.4934 -0.7824 -1.3255 0.4989 0.6339 0.2426 -0.0605 -1.5972 -0.1302 -1.1053 3.7055 1.4627 1.9815 -2.8134 -1.2613

>  <OB_ATOM_TYPES> (1frpA1)
O.3 O.3 O.3 O.3 O.3 O.3 O.2 O.2 O.2 C.3 O.3 O.3 O.3 C.2 C.3 C.3 C.3 C.3 P.3 P.3

>  <ENSEMBLE_RMSD> (1frpA1)
0.979 1.024 1.029 1.106 1.193 1.199 1.232 1.276 1.358 1.364 1.405 1.413 1.417 1.467 1.507 1.646 1.668 1.686 1.736 1.761 1.805 1.817 1.853 1.862 1.873 1.875 1.908 1.924 1.962 1.966 1.970 1.991 2.010 2.022 2.079 2.094 2.147 2.164 2.193 2.218 2.221 2.268 2.273 2.289 2.326 2.329 2.367 2.389 2.440 2.517

$$$$
