
 OpenBabel03071213D

 18 19  0  0  0  0  0  0  0  0999 V2000
   40.3860   78.6560   93.9660 C   0  0  0  0  0
   42.7810   79.6280   90.6750 O   0  0  0  0  0
   40.9740   80.4110   92.4700 O   0  0  0  0  0
   42.4790   78.7870   88.7290 O   0  0  0  0  0
   40.0480   77.9560   89.1260 C   0  0  0  0  0
   36.5500   77.1660   88.4970 N   0  0  0  0  0
   40.4440   78.4660   91.5080 N   0  0  0  0  0
   35.6700   77.3710   92.0550 C   0  0  0  0  0
   36.9460   77.7060   92.5190 C   0  0  0  0  0
   37.8230   77.4380   88.0820 C   0  0  0  0  0
   35.4310   77.1480   90.7270 C   0  0  0  0  0
   37.9750   77.8610   91.6680 C   0  0  0  0  0
   40.5690   78.9630   90.1360 C   0  0  0  0  0
   40.5650   79.2550   92.5710 C   0  0  0  0  0
   42.0260   79.2150   89.7980 C   0  0  0  0  0
   38.6070   77.7230   89.1500 C   0  0  0  0  0
   36.4920   77.2960   89.8540 C   0  0  0  0  0
   37.7650   77.6550   90.3060 C   0  0  0  0  0
  1 14  1  0  0  0
  2 15  1  0  0  0
  3 14  2  0  0  0
  4 15  2  0  0  0
  5 13  1  0  0  0
  5 16  1  0  0  0
  6 10  1  0  0  0
  6 17  1  0  0  0
  7 13  1  0  0  0
  7 14  1  0  0  0
  8  9  1  0  0  0
  8 11  2  0  0  0
  9 12  2  0  0  0
 10 16  2  0  0  0
 11 17  1  0  0  0
 12 18  1  0  0  0
 13 15  1  0  0  0
 16 18  1  0  0  0
 17 18  2  0  0  0
M  END
>  <MOLID> (1ghbC1)
1ghbC1

>  <SMILES_CANONICAL> (1ghbC1)
CC(=O)N[C@@H](C(=O)O)Cc1c[nH]c2c1cccc2	

>  <FINGERPRINT> (1ghbC1)
0000000000000000000000000000001000000000000000000101100000000000000000000001000000000001000000000100000110000001000001100001000000000000000001000001000010000000000000000000000000000000000000000000000000000000001000000000000000000000000000000000000000000100000000000100000000001000100000000000000000001001000010000100000000001000001100000000000000000100010000000000000010110000000000000001111000000000100010000000001000000000010000000000100000000000000000000000000000000000010000000000000000001100000000000000110000010000000000000000000000000000000000100000000000000000000000000000000001100000000001000000100000000000000000000000001000000001010000000000000000000001000000000001100000100000100011100000100000100011100000000000000001000000100100010100000000000000000110000000000000000100001110000000000110000000000000000000000000000000000010000000000000000000000000000000000000000000000000000000000000000100000000000000000000000000000000000000011000000000000000110010000000000100010000100000000000000000000000000000011000100000

>  <MACCS166> (1ghbC1)
000000000000000000000000010000000000000000001000010001000000000010000000000100000010000001110011001000011001011000001001101010000010000110111100010010100111111110111000

>  <OB_MW> (1ghbC1)
246.1

>  <OB_logP> (1ghbC1)
1.6906

>  <OB_PSA> (1ghbC1)
82.19

>  <OB_MR> (1ghbC1)
67.2662

>  <OB_ATOMIC_CHARGES> (1ghbC1)
0.0964369683 -0.2437370623 -0.2733167814 -0.2437370623 0.0612295224 -0.2441759057 -0.1952230024 0.0015443618 8.85112e-05 0.0946353666 0.0190875576 0.0012316733 0.2020953039 0.242333185 0.3845418244 0.0006824635 0.0810387447 0.0152443317

>  <MCT_HBD> (1ghbC1)
3

>  <MCT_HBA> (1ghbC1)
5

>  <ENSEMBLE_TOTAL> (1ghbC1)
50

>  <ENSEMBLE_COORDS> (1ghbC1)
1.5941 0.7459 3.2582 4.1647 0.3635 -0.6524 0.2189 1.8486 1.6453 3.0506 1.2845 -2.4038 1.1891 -0.7286 -0.8310 -2.2704 -0.5577 -2.1599 2.1000 0.6741 0.9468 -3.7217 -0.9096 1.2416 -2.4601 -0.9663 1.9711 -0.8678 -0.5286 -2.3290 -3.7363 -0.7948 -0.1021 -1.2850 -0.9206 1.3136 1.7926 0.6110 -0.4629 1.2095 1.1643 1.8749 3.0473 0.8081 -1.2758 -0.2573 -0.6332 -1.1245 -2.4703 -0.7034 -0.7889 -1.2979 -0.7573 -0.1214
2.2518 0.0521 2.4850 3.7181 1.1872 -0.7422 2.0498 2.3929 2.8807 2.9953 -0.8480 -1.4441 0.4837 0.9563 -1.2747 -2.1393 -1.4664 -2.2541 1.6126 1.6169 0.7615 -3.6354 -1.4814 1.1417 -2.6999 -0.5449 1.7552 -1.0060 -0.6712 -2.5257 -3.5159 -1.8206 -0.1578 -1.6997 0.0030 1.0359 1.4739 0.5491 -0.2041 1.9598 1.4644 2.0811 2.7899 0.2079 -0.8595 -0.6328 -0.0038 -1.4079 -2.4371 -1.2327 -0.9142 -1.5689 -0.3609 -0.3568
1.9137 0.3769 3.2823 2.6891 1.6077 -2.3229 0.4725 1.7337 1.9399 4.1213 0.4513 -0.9827 1.1570 -0.7296 -0.8622 -2.2985 -0.4853 -2.1828 2.1901 0.5213 0.9436 -3.7683 -0.8454 1.2089 -2.5105 -0.9475 1.9411 -0.8958 -0.4909 -2.3488 -3.7769 -0.7023 -0.1321 -1.3317 -0.9084 1.2889 1.7498 0.5967 -0.4302 1.4252 0.9656 1.9975 2.9955 0.8544 -1.2369 -0.2907 -0.6254 -1.1450 -2.5055 -0.6397 -0.8138 -1.3363 -0.7331 -0.1449
1.3358 1.4533 3.0440 3.8334 -0.5368 -0.2530 0.8294 2.7574 1.1065 3.7907 1.2113 -1.7087 1.0404 -0.5971 -1.1862 -2.5505 -0.0447 -1.9301 1.6506 0.5934 0.8669 -3.5550 -1.5151 1.3295 -2.2106 -1.7850 1.8279 -1.1820 0.0492 -2.2690 -3.7420 -0.9504 0.1192 -1.1274 -1.4827 1.0852 1.7585 0.5883 -0.5732 1.2347 1.6992 1.5728 3.2219 0.4815 -0.9080 -0.4254 -0.4277 -1.2526 -2.5745 -0.6209 -0.6617 -1.3278 -0.8735 -0.2096
1.9142 1.2993 3.3868 3.1592 -0.1113 -1.9719 2.3593 2.7026 1.5140 3.6508 1.7511 -0.7856 0.9617 -0.7740 -0.7193 -2.3977 -0.3915 -2.2411 1.8820 0.4509 1.1673 -4.0461 -1.3685 0.9429 -2.8319 -1.5216 1.7375 -0.9877 -0.3070 -2.3110 -3.9789 -1.0141 -0.3567 -1.6197 -1.3071 1.1872 1.6213 0.5088 -0.2559 2.0731 1.5848 1.9289 2.9207 0.7898 -0.9891 -0.4543 -0.5973 -1.0993 -2.6768 -0.7807 -0.9320 -1.5491 -0.9143 -0.2027
0.9653 0.5970 2.6692 3.5141 1.0890 -1.5065 2.6083 2.3009 2.9079 2.6496 -0.9970 -1.7530 0.4837 1.1590 -0.7487 -1.9414 -1.1957 -2.2731 2.3331 1.3568 0.8312 -3.6295 -1.7822 0.9810 -2.8116 -0.8721 1.7750 -0.8373 -0.3191 -2.3470 -3.4121 -1.9266 -0.3420 -1.8148 -0.1669 1.2045 1.6745 0.4724 -0.1074 2.0426 1.5030 2.1640 2.6579 0.0890 -1.1867 -0.5793 0.2005 -1.1231 -2.3391 -1.1686 -0.9387 -1.5639 -0.3395 -0.2067
1.4325 -0.3107 2.4301 3.7103 1.4970 -1.2841 2.3553 1.7745 3.1242 2.7856 -0.3369 -2.2483 0.4737 1.0804 -0.7977 -1.6376 -1.7634 -1.8993 2.2299 1.3442 0.8672 -3.9998 -1.2604 0.9181 -3.3180 -0.1216 1.5246 -0.5228 -0.9111 -2.0448 -3.5068 -1.8482 -0.1905 -2.1800 0.3666 0.9911 1.7756 0.5407 -0.2438 2.0459 1.0351 2.1931 2.7965 0.5012 -1.3547 -0.4976 -0.0091 -1.0345 -2.2901 -1.3157 -0.7534 -1.6525 -0.2625 -0.1975
1.6725 -0.8745 2.9566 3.8732 0.7193 -0.6858 1.7197 1.4376 2.3613 2.7006 2.4504 -1.5763 0.8850 0.0227 -1.6126 -1.9434 -2.3263 -1.3209 1.7815 -0.1718 0.6866 -3.7652 -0.1194 1.0435 -2.7990 0.9731 1.0568 -0.6985 -1.9232 -1.8451 -3.5494 -1.2229 0.2994 -1.6745 0.9049 0.3171 1.5020 0.7190 -0.4170 1.7158 0.2682 1.9921 2.7356 1.4101 -0.9310 -0.3683 -0.7062 -1.3538 -2.3429 -1.2843 -0.4875 -1.4445 -0.2767 -0.4836
3.5044 0.7313 3.1447 2.1136 2.0146 -1.6168 2.4140 2.4773 1.9290 3.6033 0.3633 -1.1100 0.9158 -0.8367 -0.4847 -2.2341 -0.6177 -2.4108 2.1070 0.2600 1.2981 -4.2847 -1.0436 0.6536 -3.1781 -1.1494 1.5990 -0.8261 -0.5896 -2.3189 -4.0527 -0.8705 -0.6633 -1.9003 -1.0558 1.1792 1.4573 0.4811 0.0242 2.6177 1.2775 2.0720 2.5276 0.9166 -0.9377 -0.4502 -0.7158 -1.0246 -2.6815 -0.7857 -1.1024 -1.6529 -0.8570 -0.2304
0.9768 0.8020 2.7064 3.5183 0.9971 -1.5107 2.7547 2.3794 2.8517 2.4759 -0.9943 -1.8264 0.4743 1.1672 -0.6025 -1.9140 -1.1074 -2.2958 2.4385 1.2974 0.8506 -3.6859 -1.8582 0.8777 -2.8790 -1.0025 1.7411 -0.8185 -0.2184 -2.2997 -3.4269 -1.9418 -0.4429 -1.8555 -0.2829 1.2386 1.6943 0.4483 -0.0575 2.1356 1.5746 2.1594 2.5953 0.0540 -1.2047 -0.5810 0.2272 -1.0427 -2.3302 -1.1652 -0.9682 -1.5728 -0.3765 -0.1744
2.2232 -0.9933 1.8934 3.1890 2.2828 -0.7248 1.3266 0.8789 3.0673 3.8176 0.3426 -1.7254 0.6274 0.6202 -1.5062 -1.8383 -2.1569 -1.4591 1.4484 0.9974 0.7736 -3.7873 -0.4979 1.2368 -2.9693 0.7057 1.3349 -0.6675 -1.5428 -1.9602 -3.4896 -1.4609 0.3407 -1.8938 0.8745 0.5408 1.7432 0.3942 -0.5062 1.6184 0.3748 1.9860 3.0212 0.9771 -1.0460 -0.4702 -0.3571 -1.3368 -2.3362 -1.2705 -0.5055 -1.5630 -0.1692 -0.4031
1.3914 0.8613 2.4633 3.8069 1.1322 -0.8544 1.0487 3.1342 1.8327 3.6742 -1.0810 -0.3609 0.9327 -0.1161 -1.5414 -2.7487 0.1139 -1.7970 1.4023 1.5934 0.1615 -3.2889 -1.8230 1.3227 -1.8832 -2.0586 1.6346 -1.4398 0.3734 -2.2522 -3.6400 -1.1239 0.2247 -0.9085 -1.5924 0.8274 1.6678 0.2407 -0.2672 1.2549 1.9781 1.4725 3.1405 0.0142 -0.4814 -0.5382 -0.1762 -1.4046 -2.5883 -0.6287 -0.6299 -1.2837 -0.8416 -0.3504
1.3032 0.9209 2.4538 3.8841 0.9971 -0.7088 1.1228 3.2123 1.8227 3.5107 -1.2181 -0.3817 0.9082 0.0062 -1.5570 -2.7815 0.1011 -1.7916 1.4801 1.6605 0.1607 -3.2349 -1.9198 1.2897 -1.8204 -2.0917 1.6018 -1.4851 0.4187 -2.2464 -3.6161 -1.2155 0.2051 -0.8671 -1.5692 0.8034 1.6420 0.2915 -0.2651 1.2827 2.0480 1.4651 3.0931 -0.0687 -0.4431 -0.5590 -0.1053 -1.4089 -2.5878 -0.6528 -0.6370 -1.2750 -0.8153 -0.3626
3.1646 1.1086 3.4548 3.5509 0.4704 -0.9894 2.9185 2.5832 1.5944 1.8674 1.7639 -1.8062 0.9128 -0.8903 -0.2046 -2.0411 -0.7977 -2.4447 2.2509 0.3634 1.3953 -4.3771 -1.0872 0.4262 -3.3684 -1.0802 1.4805 -0.6482 -0.7519 -2.2172 -4.0189 -1.0032 -0.8711 -2.0567 -0.9940 1.1809 1.4694 0.4638 0.1815 2.7601 1.4594 2.0583 2.2990 0.9863 -0.9651 -0.3967 -0.7996 -0.8867 -2.6131 -0.8981 -1.1785 -1.6733 -0.8968 -0.2083
3.1019 1.2946 3.1855 1.9435 1.7214 -2.2794 0.9058 0.5462 2.6257 3.7646 0.6007 -1.4958 1.1098 -0.7202 -0.3937 -2.0575 -0.7596 -2.3091 2.5366 0.6906 0.9717 -4.1169 -0.7822 0.7774 -3.0144 -0.7189 1.7306 -0.6504 -0.7337 -2.2214 -3.8781 -0.7943 -0.5494 -1.7355 -0.6831 1.3050 1.6948 0.6650 -0.2034 2.0403 0.8146 2.2494 2.6077 0.9717 -1.3629 -0.2699 -0.6810 -0.9226 -2.5056 -0.7397 -0.9910 -1.4767 -0.6921 -0.1164
3.3553 0.2487 3.3621 3.2212 1.0743 -1.1170 2.7156 2.1409 2.0552 1.2665 2.2388 -1.1974 1.0685 -0.9989 -0.5691 -2.1043 -1.4865 -2.4137 2.3533 -0.0067 1.2332 -4.1528 -0.3538 0.4669 -3.0454 -0.0205 1.3562 -0.6966 -1.5047 -2.3143 -3.9212 -0.8347 -0.7712 -1.7686 -0.2075 0.9673 1.3955 0.2721 0.1867 2.7620 0.9211 2.1660 1.9314 1.3028 -0.7716 -0.3124 -1.0499 -1.0974 -2.5494 -1.0092 -1.1836 -1.5186 -0.7263 -0.3584
2.3820 -0.9373 1.9063 2.9185 1.7306 -2.1036 1.3814 0.8942 3.0586 4.0999 0.9489 -0.3325 0.6175 0.5853 -1.4955 -1.8858 -2.1520 -1.4909 1.4547 0.9743 0.7602 -3.8442 -0.5031 1.2003 -3.0043 0.6822 1.3349 -0.7008 -1.5501 -1.9700 -3.5510 -1.4571 0.2933 -1.9117 0.8424 0.5625 1.7594 0.3665 -0.5200 1.6859 0.3878 1.9816 3.0445 1.0368 -0.9478 -0.4856 -0.3822 -1.3200 -2.3769 -1.2756 -0.5254 -1.5834 -0.1915 -0.3919
1.1096 0.7535 2.7782 3.3338 0.9547 -1.6435 3.4602 0.9880 3.0765 1.2833 1.7626 -2.1957 1.1626 -0.7180 -0.1325 -1.8007 -1.3934 -2.2463 2.6487 0.9082 0.9249 -4.1556 -0.6288 0.5169 -3.1539 -0.2557 1.5100 -0.4095 -1.3043 -2.0341 -3.7871 -1.0013 -0.7253 -1.8390 -0.2987 1.2147 1.5779 0.7367 -0.0344 2.5190 0.8945 2.2923 2.0323 1.2285 -1.3874 -0.1616 -0.8933 -0.7677 -2.3781 -1.0249 -1.0340 -1.4419 -0.7084 -0.1125
1.3379 0.9990 2.4165 2.6325 2.8433 -0.6736 2.2657 -1.1934 2.5400 3.7414 0.9676 -1.3460 0.7717 0.3160 -1.6195 -2.0226 -2.1056 -1.5385 1.9611 -0.2677 0.4563 -3.7232 -0.3507 1.2533 -2.7652 0.7403 1.3931 -0.8008 -1.6129 -2.0411 -3.5518 -1.3000 0.3115 -1.6858 0.8165 0.5892 1.5088 0.8135 -0.3910 1.8957 -0.2623 1.8293 2.7588 1.5053 -0.8571 -0.4456 -0.4870 -1.3772 -2.3900 -1.2098 -0.5385 -1.4887 -0.2121 -0.4066
0.9011 2.9659 0.7029 3.8382 -0.5749 -0.1016 0.9252 1.7710 2.7641 3.8407 0.8932 -1.8375 1.0345 -0.5321 -1.1796 -2.5689 0.1019 -1.7473 1.6545 0.6789 0.8720 -3.4812 -1.7128 1.3616 -2.1232 -2.0270 1.7929 -1.2112 0.2457 -2.1085 -3.7012 -1.0329 0.2180 -1.0603 -1.6435 1.0576 1.8175 0.6086 -0.5647 1.1473 1.7588 1.5557 3.2667 0.3649 -0.8942 -0.4270 -0.3393 -1.1733 -2.5560 -0.6193 -0.5552 -1.2969 -0.9069 -0.1629
1.1442 1.3302 2.3357 3.7880 0.6476 -1.0662 2.0377 -0.8340 2.7803 2.8054 2.6984 -1.1325 0.8401 0.1835 -1.6375 -1.9593 -2.2259 -1.4671 1.8589 -0.1719 0.5853 -3.6787 -0.3261 1.2177 -2.7356 0.7839 1.2880 -0.7355 -1.7575 -1.9890 -3.4974 -1.3287 0.3347 -1.6584 0.8234 0.4794 1.5005 0.8042 -0.4209 1.7199 0.0042 1.9411 2.7495 1.5005 -0.8882 -0.3938 -0.5915 -1.3907 -2.3385 -1.2762 -0.5221 -1.4469 -0.2642 -0.4480
1.2008 1.2959 2.3714 3.8208 0.8212 -0.9506 2.0186 -0.8991 2.8026 2.5957 2.7106 -1.2666 0.8919 0.0861 -1.6137 -1.9701 -2.2422 -1.4502 1.9203 -0.1959 0.6125 -3.6982 -0.2331 1.1483 -2.7184 0.8442 1.2279 -0.7306 -1.8116 -1.9661 -3.5189 -1.2670 0.3017 -1.6177 0.8304 0.4509 1.5027 0.7535 -0.3972 1.7424 -0.0415 1.9672 2.6802 1.5492 -0.8886 -0.3666 -0.6474 -1.3787 -2.3341 -1.2718 -0.5205 -1.4189 -0.2815 -0.4504
1.2528 0.9310 2.8411 3.2242 0.8668 -1.7148 3.6276 0.8408 3.0092 1.1878 1.7732 -2.1551 1.1283 -0.6699 -0.0055 -1.7313 -1.3791 -2.2491 2.6912 0.9813 0.9074 -4.2129 -0.6937 0.4201 -3.2608 -0.3093 1.4571 -0.3528 -1.2701 -1.9753 -3.7869 -1.0445 -0.8099 -1.9338 -0.3219 1.2179 1.5719 0.7807 0.0097 2.6411 0.9049 2.2796 1.9604 1.2215 -1.3815 -0.1653 -0.8692 -0.6954 -2.3662 -1.0325 -1.0598 -1.4754 -0.7099 -0.0957
2.1072 2.0835 2.2685 3.2173 1.2799 -1.1512 3.5349 0.3619 3.0883 1.1758 2.2775 -1.2542 1.1096 -0.9350 -0.6879 -2.1391 -1.4261 -2.3944 2.4637 0.0077 1.0861 -4.0692 -0.4930 0.6354 -2.9276 -0.1798 1.4877 -0.7283 -1.4114 -2.3643 -3.8876 -0.9030 -0.6361 -1.6672 -0.3152 1.0293 1.4387 0.3098 0.1097 2.7639 0.7386 2.2087 1.9078 1.3946 -0.8262 -0.2952 -1.0087 -1.1455 -2.5342 -1.0237 -1.1214 -1.4706 -0.7577 -0.3324
2.5498 2.8377 1.4725 3.5741 0.3739 -1.0217 3.3465 1.3820 3.1803 1.9414 1.6951 -1.8950 0.9048 -0.8477 -0.1474 -2.0610 -0.6712 -2.3659 2.3136 0.4363 1.3552 -4.3716 -1.2961 0.4707 -3.3585 -1.3541 1.5192 -0.6697 -0.6031 -2.1394 -4.0226 -1.0793 -0.8136 -2.0516 -1.1976 1.2266 1.5013 0.5114 0.1571 2.7701 1.4959 2.1011 2.3435 0.9398 -1.0196 -0.4094 -0.7605 -0.8193 -2.6225 -0.9016 -1.1124 -1.6781 -0.9608 -0.1485
1.6798 1.8125 2.4464 2.4831 -1.2539 0.9009 2.6871 3.6579 1.3229 3.5770 -0.2265 -0.8153 0.7086 0.3769 -1.4198 -2.9126 -0.1328 -1.9454 1.8734 1.9259 0.0436 -3.2556 -2.3381 1.0177 -1.8702 -2.2555 1.4662 -1.6614 0.4314 -2.2663 -3.6622 -1.6734 -0.0824 -0.9677 -1.5196 0.7868 1.3947 0.5664 -0.0850 2.1352 2.5642 1.2327 2.6140 -0.3143 -0.0684 -0.7342 0.0625 -1.3497 -2.6884 -0.8811 -0.7935 -1.4007 -0.8025 -0.3913
0.6108 3.1672 1.7470 3.5130 -0.2220 -1.7487 1.5650 1.0860 2.4271 3.9759 0.2197 0.4279 0.8692 0.0210 -1.5716 -2.8298 0.0976 -1.7029 1.4819 1.6181 0.1697 -3.1535 -2.0436 1.3132 -1.7287 -2.1706 1.6002 -1.5515 0.4757 -2.1669 -3.5820 -1.3322 0.2508 -0.8118 -1.5770 0.8102 1.6723 0.2713 -0.3124 1.2613 1.8429 1.5114 3.1637 0.1004 -0.4812 -0.5949 -0.0512 -1.3650 -2.5912 -0.6943 -0.5820 -1.2698 -0.8091 -0.3266
1.6949 -0.2530 3.0754 3.1819 2.5188 -0.2397 3.4305 -0.6211 1.4730 3.4199 1.3161 -2.1495 0.4365 0.8263 -1.2082 -1.4033 -2.3725 -0.7430 1.6392 0.7395 0.9178 -4.3723 -0.6398 0.6526 -3.8561 0.7199 0.5430 -0.2810 -1.6311 -1.1679 -3.6240 -1.6917 0.2652 -2.6263 0.9582 0.0412 1.7687 0.6165 -0.5149 2.3621 -0.0866 1.7490 2.8568 1.5051 -1.0786 -0.4943 -0.3078 -0.9621 -2.3098 -1.4267 -0.2701 -1.8233 -0.1702 -0.3832
3.2347 -0.6157 3.0475 3.3208 1.6517 -1.2423 0.9108 -0.2613 2.6296 1.2159 2.4387 -1.5843 1.3027 -0.6350 -0.8163 -1.9315 -2.3779 -1.2178 2.4748 0.4279 1.0503 -3.8891 0.4551 0.1685 -2.7683 1.3619 0.3843 -0.5306 -2.2767 -1.3370 -3.6887 -0.7761 -0.3430 -1.5119 0.9852 0.0771 1.5418 0.6337 -0.0294 2.0680 -0.1373 2.2426 1.9903 1.6933 -0.9974 -0.1097 -1.0698 -0.8883 -2.3385 -1.1632 -0.6737 -1.2913 -0.3345 -0.4703
1.2159 3.4616 1.7019 3.9792 0.5186 -0.8083 0.1970 1.3450 2.1243 3.1623 -1.5932 -0.6034 0.9099 0.4899 -1.3907 -2.7874 0.5604 -1.3006 1.9359 1.4980 0.5865 -2.9788 -2.3873 0.9438 -1.5415 -2.6172 1.0668 -1.5318 1.0505 -1.7237 -3.4561 -1.3743 0.1931 -0.6602 -1.8311 0.4171 1.7117 0.2645 -0.1233 1.0389 1.9895 1.5100 3.0140 -0.3811 -0.5092 -0.5415 0.2913 -1.1970 -2.4994 -0.5373 -0.4906 -1.1682 -0.7479 -0.3967
1.8060 1.5884 2.4442 3.8720 0.7626 -1.0558 1.5984 3.6631 1.2887 3.6169 -1.2239 0.0165 0.8627 -0.2396 -1.1795 -2.6694 0.8135 -0.8584 1.6872 1.7335 0.0394 -3.7079 -2.4471 0.5684 -2.3945 -3.0825 0.5419 -1.3265 1.0323 -1.2227 -3.8649 -1.1782 0.1424 -1.3102 -2.4152 0.0955 1.7457 0.2908 -0.0656 1.6814 2.4396 1.2176 3.1626 -0.1447 -0.3418 -0.5823 -0.0593 -0.9248 -2.6998 -0.4784 -0.3410 -1.4775 -1.0550 -0.3651
1.8051 -0.6904 2.2652 2.7662 0.0810 -2.4163 2.9721 1.1928 3.1425 3.1961 2.1660 -1.6054 0.4762 0.9263 -0.4491 -1.2758 -2.3353 -0.8110 2.5051 1.1690 0.8908 -4.5130 -0.8265 0.1966 -4.0231 0.5336 0.3934 -0.1179 -1.5341 -0.8855 -3.6753 -1.8096 -0.1901 -2.7234 0.8356 0.2002 1.9353 0.5489 -0.2829 2.4870 0.6396 2.1585 2.7066 1.0545 -1.4719 -0.4087 -0.2601 -0.5251 -2.2874 -1.4738 -0.3959 -1.8252 -0.2175 -0.2139
3.2660 3.1293 2.4425 2.7807 0.5785 -1.5514 3.1517 0.7512 2.6536 2.1100 -1.3548 -0.5576 0.1102 1.3560 -0.3079 -1.8786 -0.8694 -2.4980 2.2153 1.7979 0.8006 -3.7144 -2.3180 0.3830 -3.0684 -1.5281 1.4260 -0.9017 0.1251 -2.2835 -3.3755 -2.1581 -0.9122 -2.1160 -0.6245 1.1179 1.3379 0.7461 0.3428 2.8717 1.7534 2.0088 2.1180 -0.1319 -0.6061 -0.7951 0.3866 -0.9589 -2.3601 -1.1847 -1.2299 -1.7516 -0.4546 -0.2697
3.1254 -0.8750 2.7081 3.7232 0.9612 -1.3000 1.3406 0.7109 2.6052 2.4519 2.8377 -1.1228 0.8419 -0.0044 -1.3679 -1.6162 -2.4944 -0.1617 2.2533 -0.1335 0.6396 -4.3003 0.0436 0.1670 -3.5255 1.1873 -0.3031 -0.3372 -2.1181 -0.6194 -3.7427 -1.1816 0.2358 -2.2332 1.0478 -0.6641 1.5783 0.7535 -0.2794 2.1342 -0.0043 2.0046 2.6108 1.6404 -0.9257 -0.3096 -0.7876 -0.8707 -2.3626 -1.3194 -0.1608 -1.6323 -0.2642 -0.5849
1.3355 3.6893 1.6015 3.8247 0.8383 -0.7406 2.6573 1.8134 2.2645 3.3453 -1.2741 -0.0586 0.7636 0.0218 -1.2811 -2.8754 0.6489 -1.0331 1.5671 1.7908 0.2090 -3.5222 -2.6464 0.5415 -2.1360 -3.1005 0.5850 -1.5630 1.0171 -1.3930 -3.8320 -1.4350 0.0385 -1.1388 -2.3288 0.1064 1.5800 0.3691 -0.0508 1.9243 2.3265 1.4267 2.9909 -0.1219 -0.2721 -0.6956 0.0381 -1.0420 -2.7556 -0.6140 -0.4601 -1.4702 -1.0326 -0.4416
0.9806 3.5691 1.2521 4.0690 0.7951 -0.9649 0.7673 1.4210 2.2762 3.5595 -1.3943 -0.6479 0.8962 0.0649 -1.2907 -2.5810 0.9502 -0.3694 1.9426 1.6347 0.2819 -3.4248 -2.5400 0.5495 -2.1185 -3.1259 0.2619 -1.2962 1.2629 -0.8584 -3.6399 -1.2186 0.3906 -1.0972 -2.3600 -0.1763 1.8809 0.2598 -0.1500 1.2076 2.0956 1.3524 3.2401 -0.2130 -0.6011 -0.5167 0.1550 -0.8559 -2.5410 -0.4125 -0.0850 -1.3283 -0.9440 -0.3647
2.5848 3.9862 1.0603 2.5412 -1.2825 -0.7908 2.2617 2.0402 2.4044 3.0007 -0.5835 1.3154 0.6696 0.5124 -1.3245 -2.9896 0.1700 -1.7501 2.0805 1.8837 0.0892 -3.1911 -2.6395 0.6666 -1.7828 -2.6501 1.0480 -1.7497 0.7942 -2.0046 -3.6521 -1.7558 -0.2415 -0.9112 -1.7837 0.4938 1.3591 0.6347 0.0190 2.2833 2.5401 1.2847 2.3911 -0.4454 0.2622 -0.7797 0.2287 -1.2470 -2.7118 -0.8210 -0.8125 -1.4040 -0.8286 -0.4726
1.9016 0.9506 2.6298 3.6253 1.2178 -1.4509 3.0770 -1.1173 2.4866 2.2373 2.9915 -1.1425 0.7226 0.2069 -1.2219 -1.4109 -2.3098 0.4444 2.4475 -0.0885 0.5238 -4.5016 -0.3578 -0.1664 -3.8797 0.7473 -0.8885 -0.1705 -1.8332 -0.0174 -3.7568 -1.3787 0.3018 -2.5473 0.7751 -1.0985 1.6259 0.8663 -0.1942 2.5253 -0.1941 1.8924 2.5193 1.8167 -0.9456 -0.3324 -0.6327 -0.6223 -2.3354 -1.3417 0.0638 -1.7473 -0.3183 -0.5943
4.7586 0.6096 2.1297 0.9436 1.6856 1.6909 4.2550 1.6184 0.0197 0.3321 2.0865 -0.4583 0.8997 -1.0925 -0.0105 -1.8855 -1.3133 -2.4542 2.8360 0.0024 0.8997 -4.3495 -0.3966 0.1729 -3.3926 -0.2116 1.2578 -0.5119 -1.3886 -2.1306 -3.9342 -0.7591 -1.0582 -2.0762 -0.4142 1.0555 1.7281 0.1765 -0.0105 3.9483 0.8118 0.8894 0.9311 1.4066 0.3651 -0.3294 -1.0706 -0.8280 -2.5201 -0.9545 -1.2672 -1.6332 -0.7964 -0.2632
2.6211 -0.2346 3.2479 3.7483 0.4537 -1.3976 2.2319 1.9455 2.3548 2.5883 2.3758 -1.7709 0.8167 -0.1874 -1.0121 -1.6986 -1.5108 1.3540 2.3504 0.1331 0.9084 -4.5070 -0.7436 -0.9352 -3.7096 -0.1983 -2.0290 -0.3771 -1.2350 0.9672 -3.9167 -1.1769 0.1958 -2.3662 -0.1162 -1.9327 1.7022 0.7606 -0.2244 2.3698 0.7452 2.1445 2.7221 1.3116 -1.1811 -0.3613 -0.6525 -0.2553 -2.4815 -1.0895 0.2845 -1.7327 -0.5806 -0.7187
1.7377 0.0971 2.7126 3.2170 2.1698 -0.8670 3.9107 -0.7980 2.3137 1.0429 2.8163 -0.9601 0.9607 -0.2376 -1.1276 -1.6841 -2.5070 0.1308 2.7302 0.0166 0.5164 -4.3152 0.0681 -0.3394 -3.4474 1.1214 -0.8552 -0.3426 -2.2135 -0.1959 -3.8122 -1.1364 -0.0009 -2.1239 0.9130 -1.0060 1.5589 0.6445 -0.0519 2.9015 -0.2759 1.8469 1.8911 1.9841 -0.6628 -0.2481 -0.9415 -0.6503 -2.3941 -1.3456 -0.1636 -1.5831 -0.3756 -0.6396
2.2854 3.7348 1.5835 3.9021 0.0730 -0.8384 0.7141 2.0714 2.2665 2.6231 -1.7796 -0.5466 0.7196 0.6847 -0.9245 -2.7788 0.7421 0.3057 2.3406 1.5444 0.6887 -3.2798 -2.8295 -0.5702 -1.9249 -3.0909 -1.0447 -1.5356 1.3605 0.0538 -3.6240 -1.6117 -0.1050 -0.9937 -2.1159 -1.0460 1.7374 0.3514 0.1460 1.6752 2.3704 1.5677 2.7815 -0.5705 -0.4332 -0.6635 0.4555 -0.4513 -2.6143 -0.5811 -0.0964 -1.3645 -0.8088 -0.5555
4.2055 1.5484 -0.5001 0.7383 1.6320 1.7365 4.9937 0.7059 1.5845 0.3771 2.1955 -0.4382 0.8889 -1.0249 0.1961 -1.8091 -1.4407 -2.3216 2.8514 0.1721 0.9464 -4.3993 -0.4256 0.1394 -3.4994 -0.2034 1.2663 -0.4490 -1.4822 -1.9389 -3.9213 -0.8296 -1.0552 -2.1710 -0.3913 1.1352 1.7109 0.2441 0.0508 4.0716 0.7766 0.7751 0.8920 1.4668 0.4002 -0.3247 -1.0994 -0.6462 -2.4977 -1.0273 -1.1833 -1.6579 -0.8172 -0.1471
5.1452 0.0114 1.3189 0.4497 2.2933 -0.2380 4.2112 1.7474 -0.0385 0.6100 1.4952 1.8932 0.8944 -0.9999 0.0739 -1.8255 -1.1887 -2.4348 2.8301 0.1315 0.8925 -4.3836 -0.3950 0.1349 -3.4803 -0.3384 1.2799 -0.4617 -1.2686 -2.0763 -3.9192 -0.6677 -1.1013 -2.1560 -0.5358 1.1234 1.6659 0.3043 0.0522 4.0351 0.7348 0.6280 0.8700 1.4078 0.7018 -0.3275 -1.0240 -0.7519 -2.5029 -0.8982 -1.2523 -1.6548 -0.8094 -0.2056
3.5724 -0.2837 1.9329 1.6930 2.6981 0.5675 5.1498 0.1706 0.2050 0.3413 1.4244 1.8810 0.6719 0.4085 -1.1994 -1.7134 -2.4246 -1.3367 2.9199 0.4569 -0.2734 -4.3633 -0.4668 0.3725 -3.6128 0.7769 0.5032 -0.4554 -1.8392 -1.5952 -3.8114 -1.5426 -0.2235 -2.3483 0.8719 0.0449 1.5142 0.3730 0.0596 3.9705 0.1265 0.5479 1.1190 1.5301 0.9412 -0.4401 -0.5639 -1.1404 -2.4584 -1.4289 -0.7101 -1.7490 -0.2871 -0.5770
3.8925 -1.1598 1.0702 0.9947 2.7097 0.1004 4.4929 0.6587 2.4902 0.8119 1.4935 -1.8102 0.6323 -0.2988 0.9365 -1.5469 -2.4495 -1.1698 2.7244 0.9478 1.0497 -4.2926 0.0488 -0.9907 -3.5817 1.0405 -0.1908 -0.3210 -2.1950 -0.5118 -3.6962 -1.1069 -1.3490 -2.3180 0.8155 0.2196 1.7110 0.4269 0.1566 3.7440 0.2261 1.6179 1.1434 1.5813 -0.6347 -0.3705 -0.9845 0.0931 -2.3384 -1.3309 -0.9150 -1.6816 -0.4235 -0.1622
1.8117 3.6206 0.1827 2.4164 -1.2493 0.9676 3.7088 3.2840 1.5844 1.7433 -1.2514 -1.2043 0.2211 0.8716 0.8218 -2.5180 0.4145 -1.6394 2.6027 1.4261 0.8087 -3.0810 -3.0728 -0.4912 -2.0743 -3.0816 0.5657 -1.5196 1.2050 -1.0268 -3.2850 -1.9722 -1.2435 -1.3326 -1.9847 0.8163 1.5380 0.7828 0.0731 2.8023 2.7786 0.9266 1.9232 -0.6591 -0.1478 -0.9223 0.4988 -0.0382 -2.4831 -0.8053 -0.9661 -1.5515 -0.8055 0.0104
1.7401 3.5660 0.7810 1.8186 -0.5533 -1.7564 3.6388 3.0300 2.1184 2.5978 -1.3956 0.2134 0.3258 0.5488 0.9780 -2.6666 0.6733 -1.2136 2.6327 1.3291 0.9419 -3.1624 -2.9939 -0.9017 -2.0440 -3.2515 -0.0005 -1.5896 1.2983 -0.5467 -3.4320 -1.7428 -1.3268 -1.2492 -2.2458 0.4167 1.5559 0.8057 0.1292 2.7641 2.6333 1.3520 2.0704 -0.4963 -0.4239 -0.8904 0.3759 0.1558 -2.5770 -0.6742 -0.8704 -1.5330 -0.9071 -0.0466
1.3973 1.1225 3.0491 2.9891 0.6897 -1.6370 3.7701 1.3191 3.0290 0.9521 1.6628 -1.9039 1.0721 -0.7347 0.2779 -2.4751 -0.9646 1.3251 2.7049 0.9288 1.0269 -3.6673 -0.8952 -2.1888 -2.3556 -0.8249 -2.8238 -1.0935 -0.9069 1.6046 -3.7801 -0.9466 -0.8463 -1.2301 -0.8042 -2.0817 1.5134 0.7141 0.2369 2.7397 1.1383 2.3847 1.7757 1.0985 -1.1952 -0.3936 -0.8277 0.4484 -2.5686 -0.9214 -0.0637 -1.3504 -0.8475 -0.6421
2.6373 3.1151 1.0614 3.5818 -0.1336 -0.6923 3.1999 2.0910 3.1357 2.2674 1.2521 -1.9304 0.8083 -0.7418 0.2380 -2.7234 -0.0107 1.0817 2.2412 0.7737 1.5097 -3.9804 -1.8427 -1.8876 -2.6823 -2.2674 -2.4012 -1.3397 0.0630 1.3361 -4.0655 -1.1017 -0.7650 -1.5412 -1.9260 -1.7674 1.5256 0.5945 0.2622 2.7138 1.9617 2.0144 2.4825 0.6306 -0.8983 -0.6554 -0.5806 0.3605 -2.8391 -0.7488 -0.0928 -1.6309 -1.1285 -0.5647

>  <OB_ATOM_TYPES> (1ghbC1)
C.3 O.co2 O.2 O.co2 C.3 N.ar N.am C.ar C.ar C.ar C.ar C.ar C.3 C.2 C.2 C.ar C.ar C.ar

>  <ENSEMBLE_RMSD> (1ghbC1)
0.730 0.875 0.895 0.900 1.009 1.044 1.054 1.086 1.099 1.101 1.103 1.104 1.137 1.178 1.188 1.226 1.250 1.263 1.263 1.279 1.298 1.312 1.342 1.349 1.413 1.450 1.463 1.505 1.654 1.656 1.660 1.687 1.710 1.729 1.772 1.889 1.980 2.026 2.047 2.065 2.068 2.243 2.281 2.287 2.295 2.295 2.314 2.379 2.437 2.443

$$$$
