
 OpenBabel03071213D

 23 22  0  0  0  0  0  0  0  0999 V2000
   59.5360   23.4890    6.3730 N   0  0  0  0  0
   53.6810   31.0090    8.1840 O   0  0  0  0  0
   61.9520   23.9770    7.0410 O   0  0  0  0  0
   59.1730   29.0920   12.4620 O   0  0  0  0  0
   53.2260   33.0420    7.7480 O   0  0  0  0  0
   61.9050   25.8730    5.9660 O   0  0  0  0  0
   58.0520   27.1760    9.5700 O   0  0  0  0  0
   57.6280   31.4940    7.7480 O   0  0  0  0  0
   60.8380   29.0410   10.8340 O   0  0  0  0  0
   60.7010   30.8790   12.4020 O   0  0  0  0  0
   59.2340   25.5110    7.7420 C   0  0  0  0  0
   59.3580   27.0320    7.6110 C   0  0  0  0  0
   55.2980   32.6580    8.8050 C   0  0  0  0  0
   58.9820   30.8470   10.4080 C   0  0  0  0  0
   56.0590   31.5500    9.3770 N   0  0  0  0  0
   58.6570   29.1450    8.6160 N   0  0  0  0  0
   59.8310   24.9030    6.4700 C   0  0  0  0  0
   57.9960   30.0420    9.5650 C   0  0  0  0  0
   53.9720   32.2000    8.2150 C   0  0  0  0  0
   61.3580   24.9330    6.5280 C   0  0  0  0  0
   58.6230   27.8020    8.6760 C   0  0  0  0  0
   57.1880   31.0870    8.8200 C   0  0  0  0  0
   59.9850   29.9190   11.5980 S   0  0  0  0  0
  1 17  1  0  0  0
  2 19  1  0  0  0
  3 20  1  0  0  0
  4 23  1  0  0  0
  5 19  2  0  0  0
  6 20  2  0  0  0
  7 21  2  0  0  0
  8 22  2  0  0  0
  9 23  2  0  0  0
 10 23  2  0  0  0
 11 12  1  0  0  0
 11 17  1  0  0  0
 12 21  1  0  0  0
 13 15  1  0  0  0
 13 19  1  0  0  0
 14 18  1  0  0  0
 14 23  1  0  0  0
 15 22  1  0  0  0
 16 18  1  0  0  0
 16 21  1  0  0  0
 17 20  1  0  0  0
 18 22  1  0  0  0
M  END
>  <MOLID> (1glpB1)
1glpB1

>  <SMILES_CANONICAL> (1glpB1)
O=C(N[C@H](C(=O)NCC(=O)O)CS(=O)(=O)O)CC[C@@H](C(=O)O)N	

>  <FINGERPRINT> (1glpB1)
0000000000000011000000000000000000000101000000000110000000000000000000000001000000000000000000000000010001010000000001000000000000000000000010000000000010000000000000000000000000000000000000000000000000000000000000000000000000100000000000000000001000001000000000000010001000000000000000000000001000000010000000001000000000000000001000000010000000000000010000000000001100110000010000000000011000010000100000000011001000000001000001000010010000000011110000000001100000000000000000000000000000001000000000000000100000010000000000000000000000000000000000000000000100000000000100000000000001000000010000000000000000000000010000000000001100000001010000000000000000000000000000000011000000000000000011100000001000000011000000000000001000000001000001100001110000000000000110000000100000000000100010000000000000000000000000000000000000010000000000000000000000000000000000000001000000000000000000000000000000001000000000000000000000000000000000000000010011000000001000010010000000000000010000000000000000000011000000010000001000100000

>  <MACCS166> (1glpB1)
000000000000000000000000000000000000001100000001001011100101100000100000100000100001000101110010100001010100011100001100001100010111000101110100011100101111111010010000

>  <OB_MW> (1glpB1)
355.069

>  <OB_logP> (1glpB1)
-0.6852

>  <OB_PSA> (1glpB1)
221.57

>  <OB_MR> (1glpB1)
72.9742

>  <OB_ATOMIC_CHARGES> (1glpB1)
-0.1208074578 -0.2436670768 -0.2440506964 -0.290722382 -0.2436670768 -0.2440506964 -0.2733300753 -0.271413937 -0.3713690141 -0.3713690141 0.0402176751 0.0889015519 0.2284902055 0.1567115111 -0.1916762265 -0.1959967268 0.1948209828 0.1940655668 0.3865375706 0.3818721033 0.2418672698 0.2634594447 -0.1048235015

>  <MCT_HBD> (1glpB1)
6

>  <MCT_HBA> (1glpB1)
12

>  <ENSEMBLE_TOTAL> (1glpB1)
50

>  <ENSEMBLE_COORDS> (1glpB1)
2.9386 -2.0461 -0.5596 -4.3562 1.9078 -0.2348 2.9923 -4.8092 -1.1898 0.4912 1.0272 3.6473 -4.8863 4.0536 -0.7532 3.3437 -3.9444 -3.2651 -1.8816 -1.3999 -0.0324 -0.8411 2.2105 -1.1945 1.9346 -0.5747 2.3657 2.8397 1.6810 3.0777 0.7723 -2.9767 -1.1539 -0.2265 -1.9636 -1.6704 -2.7928 3.6273 0.3427 1.0178 1.6032 1.2066 -2.0288 2.4871 0.7796 0.0783 -0.1534 -0.1690 2.1602 -2.6274 -1.6390 -0.2517 0.9083 0.7573 -4.1105 3.2376 -0.2716 2.8899 -3.8410 -2.1333 -0.7817 -1.1701 -0.5229 -1.0521 1.9263 -0.0192 1.7505 0.8365 2.6316
3.2804 -3.8176 -0.6639 -4.0828 1.9090 -0.3060 2.1207 -4.7880 -3.1245 -0.0896 2.4173 3.2843 -4.3868 4.0789 -0.8937 2.8988 -2.7481 -3.7638 -1.7046 -1.6928 0.1778 -0.6275 1.8357 -1.1304 1.1895 0.3175 3.7824 2.4090 2.4942 3.3468 0.9049 -3.3598 -0.9438 -0.0475 -2.2947 -1.4420 -2.4262 3.4993 0.3719 1.2056 1.3258 1.3513 -1.7844 2.2917 0.8266 0.2734 -0.4729 0.0463 2.3027 -3.0959 -1.4587 -0.0710 0.6416 0.9075 -3.7213 3.2128 -0.3405 2.4818 -3.5019 -2.8939 -0.5949 -1.4859 -0.3013 -0.8326 1.6422 0.0642 1.3023 1.5915 3.1035
2.1657 -3.2808 -3.8210 -4.4147 2.4934 0.2814 3.5557 -3.2985 -1.2080 1.5134 0.1361 3.1910 -4.5239 4.4998 -0.7746 2.7842 -5.4200 -1.4939 0.2721 -2.0867 1.3190 -1.1638 1.8755 -1.2903 2.6296 2.2833 2.5507 0.1741 2.2534 3.1639 1.0750 -2.3248 -1.8836 -0.1049 -2.6208 -0.9853 -2.4644 3.8778 0.3004 0.9658 1.1279 0.8993 -1.8575 2.6593 0.7760 -0.5847 -0.4661 -0.1098 1.5967 -3.5931 -2.5202 -0.4809 0.7138 0.7261 -3.8920 3.6708 -0.1322 2.6885 -4.2175 -1.6991 -0.0850 -1.7084 0.2087 -1.1856 1.7953 -0.0652 1.3366 1.6302 2.5666
2.4869 -4.6079 -1.2144 -3.5777 4.1394 0.8668 2.3511 -3.0526 -3.6207 0.4772 1.2696 3.7047 -4.6177 4.3647 -1.1406 3.7434 -1.7708 -2.3570 -1.9268 -1.8979 0.6664 -0.8052 0.9353 -1.4505 2.1099 -0.2540 2.5577 2.6301 2.2079 2.8307 0.6533 -2.9867 -1.3004 0.0958 -3.0458 0.1068 -2.8531 2.7614 -0.9429 0.7467 1.5233 1.1709 -2.1715 2.0136 0.0789 0.0558 -0.7008 0.4942 2.1514 -3.1951 -1.2562 -0.4271 0.5996 0.9135 -3.7848 3.8172 -0.4290 2.8382 -2.5899 -2.4435 -0.7242 -1.8324 0.4342 -1.1381 1.1727 -0.2915 1.6863 1.1291 2.6219
0.9998 -3.9506 -3.7411 -2.0555 4.1407 0.0043 3.6373 -4.4958 -1.8248 -0.3059 2.4144 3.2099 -4.2175 4.3245 -0.6611 3.3927 -2.4800 -2.8620 -1.1691 -2.2204 1.0492 -1.4231 0.7116 -1.1046 1.7473 0.9805 3.3689 1.9196 3.3947 2.6199 0.6666 -2.7793 -1.6663 0.7686 -2.9242 -0.1637 -3.4684 2.2167 0.2117 0.7933 1.6637 1.0160 -2.2939 1.6565 0.8277 0.4181 -0.6438 0.4116 1.4545 -3.8632 -2.3633 -0.2063 0.5270 0.9845 -3.3047 3.6592 -0.1878 2.9120 -3.5054 -2.4033 -0.1179 -1.9110 0.4983 -1.3561 0.9503 0.0972 1.2088 2.1340 2.6789
1.2947 -3.7777 -3.2935 -3.9437 1.7652 -0.1583 3.2405 -2.6170 -0.9615 1.4138 0.0620 3.3834 -4.1717 3.5869 -1.4928 2.0654 -1.1139 -2.2112 -2.0306 -1.5170 0.8153 -0.4553 1.1636 -1.3631 3.4164 1.4235 2.7509 1.1767 2.5470 3.1311 -0.1794 -2.9337 -1.5955 -0.4752 -3.0779 -0.1195 -2.0996 3.2826 -0.3119 1.5159 1.0443 1.0065 -1.4505 2.2384 0.4411 0.1772 -0.8727 0.4765 1.2329 -3.3787 -1.8985 0.1059 0.5071 0.9002 -3.4978 2.9086 -0.7273 2.1931 -2.2326 -1.7360 -0.8861 -1.7457 0.4394 -0.6125 1.3152 -0.1557 1.9702 1.4225 2.6803
1.8610 -4.6498 -1.2346 -4.1103 1.7152 -0.4535 2.2487 -3.0543 -3.5915 2.9803 2.0920 2.9679 -4.5452 3.6632 -1.5336 3.7352 -2.0975 -2.1586 -2.1176 -1.2183 0.3808 -0.5834 1.6505 -1.2517 0.7979 1.3360 3.9360 2.3326 -0.3184 2.7769 0.3723 -2.7194 -1.4329 -0.3263 -2.7310 -0.0884 -2.5272 3.5002 -0.2415 1.1389 1.5235 1.3331 -1.8228 2.4997 0.5180 0.0694 -0.4373 0.4074 1.7966 -3.1990 -1.2615 -0.1770 0.8572 1.0003 -3.8225 2.9874 -0.8122 2.6985 -2.7169 -2.3583 -0.9107 -1.3901 0.2426 -0.8548 1.6994 -0.0557 1.7662 1.0075 2.9111
1.3201 -2.3102 -3.8007 -4.2336 1.2924 -0.1273 1.2654 -5.2606 -2.6455 2.4137 3.0303 3.5293 -4.8681 2.9621 -1.5273 3.2636 -4.1880 -2.4132 -0.9813 -1.6240 0.7054 -0.3890 1.6443 -1.1963 0.2159 2.0286 4.1911 2.1272 0.5458 3.4265 1.6600 -1.9396 -1.4537 1.1779 -2.3038 -0.0665 -2.7224 3.1194 -0.4585 0.9567 2.1105 1.6683 -1.9084 2.3189 0.4202 0.7302 -0.0569 0.6092 1.1826 -2.9291 -2.4916 -0.0076 1.0748 1.1290 -4.0435 2.4682 -0.7687 2.0457 -4.1586 -2.5083 0.1746 -1.3067 0.4421 -0.7581 1.6987 -0.0269 1.3785 1.7835 3.3632
2.5954 -4.9307 -1.1042 -4.1896 3.1955 1.2946 0.6636 -4.7258 -3.2876 0.0515 0.1837 3.4310 -4.7973 4.4509 -0.4972 2.6690 -4.4339 -4.3214 1.5777 -1.4398 1.5131 -0.3782 1.9873 -1.4517 1.4680 2.1742 3.9632 -0.9653 2.4717 3.3297 1.4930 -2.7933 -1.4202 2.2688 -1.6716 -0.7659 -2.8369 3.0851 -0.6721 0.7585 1.7224 1.4844 -2.1044 2.1034 0.0848 0.6200 -0.0987 -0.1331 2.4466 -3.8052 -2.0100 -0.1560 0.8318 0.6662 -4.0377 3.6479 0.0305 1.9631 -4.3422 -3.3257 1.4529 -1.0829 0.3474 -0.8618 1.6927 -0.3606 0.2992 1.7775 3.2048
2.5600 -2.3782 -2.8725 -2.2293 4.6115 0.7069 4.0397 -3.6422 -0.7448 1.7137 -0.0566 2.1303 -4.3332 5.0511 -0.0195 3.4840 -5.4259 -2.0437 -1.5864 -2.1052 0.5640 -2.0051 1.2691 -1.3513 2.6123 2.2777 2.0513 0.4328 1.7894 3.2480 1.3026 -2.9691 -0.8661 -0.1201 -2.6306 -1.2500 -3.7164 2.7632 0.3755 0.5156 1.6440 0.6242 -2.5592 2.0056 0.7766 -0.2059 -0.4511 -0.3136 2.0679 -3.4815 -2.0643 -0.6191 0.6449 0.5352 -3.4755 4.2489 0.3283 3.2535 -4.2957 -1.6354 -0.7160 -1.7265 -0.2123 -1.7896 1.3205 -0.1440 1.3739 1.5366 2.1771
1.2883 -5.0878 -2.3388 -3.9853 3.1522 0.9521 2.0982 -2.9502 -4.1158 1.9227 3.2794 3.1016 -4.3316 4.0982 -1.0827 4.0342 -3.4537 -3.0329 -1.3179 -2.0368 0.9312 -0.2260 1.0076 -1.2657 -0.5527 2.8913 3.0499 0.9866 1.2202 4.1810 0.9124 -2.8259 -1.4915 0.6853 -2.9671 0.0005 -2.3320 2.8237 -0.7420 1.0808 1.4663 1.5699 -1.7892 1.8860 0.2034 0.5650 -0.7035 0.7034 1.9359 -3.8556 -1.9239 -0.0266 0.5520 1.1047 -3.6491 3.4141 -0.3304 2.8114 -3.3960 -3.0534 -0.1606 -1.8634 0.5637 -0.6611 1.1581 -0.1271 0.7113 2.1910 3.1428
3.4153 -3.9305 -2.0842 -4.4323 1.7836 0.5284 0.6937 -4.8926 -0.7321 2.4814 -0.2091 1.7642 -5.1455 3.8499 -0.0816 1.9342 -3.4447 0.5181 -1.0813 -1.3295 -1.0335 -0.9328 2.3198 -1.4504 2.5867 1.8336 3.2066 0.5384 0.3443 3.2518 2.1338 -1.9064 -1.9249 0.8453 -1.3167 -2.4535 -2.8025 3.5259 0.3350 1.0366 1.7946 1.1040 -1.9201 2.4300 0.6416 0.5900 0.2506 -0.6888 2.0681 -3.4143 -1.9089 -0.0313 1.0029 0.3777 -4.2387 3.0891 0.2317 1.5927 -3.8901 -0.5674 0.0039 -0.8294 -1.3096 -0.9824 1.9870 -0.2696 1.6468 0.9521 2.5454
2.1007 -4.3112 -3.2162 -4.0111 2.8689 2.0247 4.0899 -4.2113 -1.1634 1.9588 2.2844 3.2461 -5.1275 4.1573 0.5215 2.4535 -5.4057 -0.1259 -1.1233 -1.3494 -1.2547 -0.7676 2.4069 -1.5918 -0.5010 1.8077 3.1958 1.1810 -0.0820 2.9833 2.0511 -2.3556 -1.7336 0.9557 -1.5698 -2.4203 -2.9494 3.3518 -0.0639 0.9458 1.6440 1.0173 -2.0431 2.3103 0.3409 0.5737 0.1681 -0.8302 1.8478 -3.8502 -1.8606 -0.1032 0.9220 0.2034 -4.1453 3.4952 0.8335 2.8004 -4.5775 -0.9571 0.0227 -0.9447 -1.4224 -0.9820 1.9541 -0.4709 0.7723 1.2867 2.7445
2.5168 -4.4078 -1.1890 -1.7703 4.2125 -0.5163 3.1964 -1.7192 -2.8522 2.1783 0.0390 2.5885 -3.8082 4.4598 -1.4835 1.7313 -3.1922 -3.7900 -1.7285 -2.1083 1.3193 -1.4559 0.6294 -1.1526 2.6168 2.5013 2.5378 0.5460 1.5982 3.6839 0.4904 -3.0747 -1.1177 0.2137 -3.1344 0.3713 -3.3945 2.4836 -0.1813 0.7178 1.4818 1.0565 -2.3244 1.8959 0.5841 0.0379 -0.7794 0.6016 1.9827 -3.0678 -1.3758 -0.4433 0.5081 1.0479 -3.0314 3.8107 -0.7942 2.2551 -2.6954 -2.8039 -0.6207 -1.9685 0.8123 -1.4457 0.9899 0.0209 1.5396 1.5376 2.6325
2.1421 -4.1055 -3.2205 -2.9656 3.8606 1.3590 2.2043 -1.3507 -2.4068 0.0810 2.5612 2.5167 -4.2887 4.3840 -0.4104 3.5902 -2.2746 -0.8565 -1.8117 -2.2110 0.5527 -0.8150 0.7151 -1.5965 1.2291 0.5052 3.3879 2.5806 2.4346 2.4601 0.4086 -3.4434 -1.6519 0.0928 -3.4654 -0.1709 -2.6958 2.6063 -0.6589 1.1450 1.0062 0.8034 -1.9052 1.7377 0.1749 0.2045 -1.1142 0.1833 1.8919 -3.6461 -1.8664 -0.1360 0.2063 0.6711 -3.4136 3.6916 0.0946 2.6686 -2.3785 -1.6550 -0.6302 -2.2086 0.2243 -0.9723 0.8876 -0.3908 1.3956 1.6015 2.4569
-0.1351 -3.0552 -2.6246 -3.8390 1.3329 -0.1949 2.1714 -4.8624 -3.7355 2.0768 3.1794 3.7363 -4.2638 2.9797 -1.6980 2.6352 -2.6365 -3.8642 -0.9338 -1.8708 0.9361 0.0418 1.1919 -1.0939 -0.3829 3.2277 3.2627 0.6691 1.2134 4.3910 1.6752 -2.4692 -1.1450 1.1939 -2.7498 0.2648 -2.1435 2.9814 -0.5689 1.2362 1.7038 1.8691 -1.4568 2.1573 0.3904 0.9104 -0.4669 0.9004 1.1590 -3.4964 -2.1279 0.2260 0.7453 1.2857 -3.5152 2.4498 -0.8867 2.0687 -3.5739 -3.3225 0.2578 -1.6665 0.7271 -0.3764 1.3700 0.0455 0.7249 2.3150 3.4530
0.6388 -4.9579 -1.8855 -2.5338 4.3017 0.7372 2.6959 -4.0331 -3.7577 1.5241 2.5997 3.2619 -4.6618 4.5510 -0.0128 3.8755 -4.9709 -2.0524 1.8330 -1.1900 1.1202 -1.4009 1.4652 -1.5187 -0.9760 2.4688 3.2551 0.4192 0.3600 3.4372 1.2172 -2.6198 -1.8542 2.1159 -1.5832 -1.2187 -3.6811 2.3596 -0.0655 0.4250 1.7010 1.1671 -2.5395 1.6793 0.4892 0.3998 -0.1591 -0.3971 1.7119 -4.0222 -1.5927 -0.4077 0.6123 0.5233 -3.6967 3.8362 0.2269 2.8763 -4.3968 -2.4646 1.4386 -0.9826 -0.0223 -1.4815 1.2810 -0.3075 0.2076 1.7001 2.9314
3.5265 -3.7266 -1.8846 -4.0612 1.4145 -0.6696 1.5111 -3.5348 0.2132 2.4019 1.6781 3.6358 -5.0268 3.4684 -0.7241 0.4352 -4.6838 -1.4307 -1.0083 -0.9115 -1.2918 -0.7323 2.8174 -0.8507 0.4956 0.0559 3.5491 2.5679 -0.3179 2.1339 2.2626 -1.6833 -1.7041 1.1304 -0.9321 -2.3664 -3.1262 3.1368 0.7057 0.9778 1.6920 1.5465 -2.1025 2.1416 0.8961 0.6671 0.5036 -0.5287 2.1977 -3.1561 -2.0294 -0.0224 1.0306 0.6255 -4.1645 2.7112 -0.2976 1.2901 -3.8823 -1.0786 0.1401 -0.4824 -1.3318 -0.9616 2.1018 0.1198 1.6021 0.5591 2.7627
0.0080 -3.5079 -2.4178 -2.2976 3.9982 -0.1604 2.2967 -2.4658 -3.8030 2.0420 0.9394 3.2920 -4.0883 3.8344 -1.5451 2.9377 -4.6207 -3.4522 -0.7770 -2.1474 1.2795 -0.8723 0.7233 -1.1653 1.7662 3.4250 3.2165 -0.1917 1.9440 3.8417 1.6952 -2.4126 -1.0617 1.3839 -2.6770 0.3958 -3.3770 1.8695 -0.3623 0.6870 1.9190 1.3590 -2.3027 1.4637 0.5072 0.6956 -0.4246 0.7752 1.3740 -3.6056 -1.9293 -0.1565 0.6787 1.1501 -3.3034 3.3201 -0.7583 2.2799 -3.6415 -3.1269 0.3033 -1.7422 0.8626 -1.1218 0.9389 0.0165 1.0188 2.1911 3.0863
1.6533 -3.8749 -3.3479 -3.9390 2.2344 0.5476 2.2354 -1.2994 -2.2561 3.0390 2.1054 2.6223 -4.2558 3.7331 -1.1278 3.3352 -2.6207 -0.7648 -1.9494 -1.7980 0.7451 -0.5257 0.9448 -1.4904 0.6369 2.7957 2.7456 1.3700 0.5376 3.6384 0.0247 -3.0707 -1.7408 -0.3628 -3.2564 -0.2898 -2.0059 3.1994 -0.4817 1.4171 0.9432 1.0452 -1.3615 2.1733 0.2943 0.2012 -1.0206 0.3224 1.4498 -3.5258 -1.9536 0.0521 0.3395 0.7857 -3.5041 3.0890 -0.4073 2.4453 -2.4614 -1.5900 -0.8153 -1.9516 0.3034 -0.6250 1.1608 -0.2873 1.4848 1.6234 2.6875
2.3256 -4.8749 -1.8049 -1.5804 3.9732 -0.2090 1.2031 -3.4835 -4.0108 0.6647 1.1394 3.7897 -3.5850 4.2220 -1.2393 3.0011 -2.1530 -3.5933 -1.3053 -2.3013 1.2044 -1.0725 0.6212 -1.0425 2.2477 2.9030 2.9839 -0.2504 3.2216 2.7271 0.6836 -3.1798 -1.2243 0.7279 -3.1651 0.2877 -3.2016 2.2253 0.0418 0.9711 1.4238 1.2510 -2.1413 1.5857 0.7775 0.4527 -0.8540 0.7148 2.0589 -3.4455 -1.7935 -0.1287 0.3860 1.1767 -2.8274 3.5656 -0.5357 2.1567 -2.9500 -3.2074 -0.1725 -2.0791 0.7919 -1.1487 0.8486 0.1606 0.9207 2.3708 2.7534
2.8265 -3.1454 -3.0649 -2.8773 2.8719 -2.1010 2.6191 -3.3385 -0.1848 2.5290 -0.1158 1.5421 -4.8422 3.6652 -1.2866 1.2139 -4.9964 -0.8604 -1.0876 -1.8707 0.4251 -2.0755 1.3675 2.4534 3.4564 2.1945 1.7936 1.9352 1.2316 3.5753 1.2431 -1.6833 -1.9827 -0.2467 -1.5212 -1.7875 -3.3140 2.6390 0.2428 0.9233 1.8741 1.2369 -1.9775 2.1103 0.2606 -0.1030 0.1639 -0.1301 1.5839 -3.1145 -2.3136 -0.1420 0.8022 1.1643 -3.7620 3.1157 -1.1089 1.7770 -3.9297 -1.0677 -0.5167 -1.1278 -0.3654 -1.4991 1.4398 1.3693 2.3360 1.3675 2.1904
1.0696 -5.0349 -2.1173 -2.1176 4.0612 -0.4108 1.6228 -3.0361 -4.1643 1.7341 3.4978 3.0405 -4.3128 4.0334 -0.9870 3.6897 -3.8368 -3.6513 -0.6284 -2.2914 1.2615 -1.0069 0.7769 -1.0719 -0.6806 2.8968 3.3189 1.1367 1.2634 4.0026 1.2166 -2.7246 -1.3948 1.4336 -2.6639 0.1013 -3.3512 2.0404 -0.0537 0.7818 1.7708 1.4503 -2.1859 1.6774 0.7099 0.6856 -0.4802 0.6231 1.9653 -3.9003 -1.9751 -0.1189 0.5852 1.1768 -3.3308 3.4726 -0.5173 2.5333 -3.5960 -3.3307 0.3656 -1.8155 0.7247 -1.1301 0.9980 0.1293 0.6283 2.3057 3.1355
3.1528 -3.8579 -3.0304 -2.0283 4.4059 0.5432 2.1887 -4.9887 -0.1854 2.4866 0.7081 2.1119 -4.2540 4.6692 0.1811 3.1817 -2.9364 -0.1655 -0.9297 -2.3615 0.1231 -2.1236 1.2117 -1.2188 1.7357 3.0910 2.2661 0.2138 1.2197 3.0342 1.4042 -2.3569 -2.3716 -0.0856 -2.3811 -2.1157 -3.4645 2.5338 0.9481 0.7303 1.5094 0.4477 -2.2122 1.8239 1.0117 -0.0407 -0.4123 -0.7764 2.0096 -3.7204 -2.1425 -0.3746 0.4852 0.3038 -3.3072 3.9658 0.5103 2.5389 -3.8021 -0.7409 -0.3933 -1.7432 -0.7903 -1.6558 1.1961 -0.0842 1.2270 1.7408 2.1405
0.7861 -4.1696 -3.5853 -1.8029 3.9112 -0.5739 2.9307 -2.3254 -3.0541 2.2597 3.1001 2.4806 -4.0116 4.4160 -0.7099 3.7824 -4.2612 -2.2132 -0.7912 -2.3774 1.4717 -1.6174 0.3736 -0.9142 -0.2133 3.3058 2.8141 1.0371 1.2782 3.6877 0.6126 -2.9294 -1.5153 0.9662 -2.9615 -0.0444 -3.3750 2.2986 0.2323 0.7705 1.5941 1.0866 -2.2107 1.7332 0.8652 0.4462 -0.6953 0.4532 1.3948 -3.9694 -2.2819 -0.2091 0.4410 1.0608 -3.1155 3.6512 -0.3761 2.8230 -3.5598 -2.5052 0.0937 -2.0016 0.7103 -1.4014 0.8239 0.2073 0.8454 2.3236 2.7036
3.8681 -3.9581 -1.3607 -4.3727 2.5810 1.5341 1.3267 -3.8130 0.0791 1.5524 1.6097 3.8228 -5.2908 3.9423 -0.0345 0.7512 -4.7575 -1.9100 -0.5108 -1.0355 -1.7770 -0.4530 2.7075 -1.2922 -0.1922 -0.0971 3.2600 2.1658 -0.3203 2.3499 2.6793 -1.8564 -1.3608 1.8320 -0.9907 -2.2651 -3.1030 3.0512 -0.4361 0.6449 1.6254 1.4583 -2.1865 2.0875 0.1151 0.8692 0.4468 -0.6367 2.6599 -3.2946 -1.8197 -0.0931 0.9441 0.3247 -4.3659 3.2394 0.3541 1.4891 -4.0406 -1.2475 0.5941 -0.5633 -1.5316 -0.9006 2.0061 -0.3882 1.0359 0.4862 2.7620
0.7265 -4.6859 -2.3939 -1.8930 4.2377 -0.1550 2.3197 -2.8805 -3.9874 1.8916 2.8896 2.6510 -3.8713 4.5254 -1.2305 3.8680 -4.3773 -3.2524 1.4939 -1.4579 1.8357 -1.8234 0.7203 -1.0706 -0.5636 2.8631 3.1358 0.8838 0.8688 3.7308 1.5284 -2.6667 -1.2669 0.8415 -2.9146 0.0602 -3.6021 2.5921 0.1702 0.4436 1.4057 1.1884 -2.5346 1.8669 0.8112 -0.1998 -0.8051 0.3783 1.9046 -3.9788 -1.9197 -0.6743 0.3911 1.0436 -3.1523 3.8713 -0.4857 2.8113 -3.7791 -3.0994 0.7724 -1.6505 0.8632 -1.7263 0.9806 0.1254 0.5553 1.9840 2.8678
1.4028 -3.8262 -3.3917 -1.3158 3.6030 -0.8663 3.3447 -1.9284 -1.5381 0.0259 2.1031 3.0188 -3.4348 4.3984 -1.0273 1.5410 -0.9865 -2.5641 -1.3749 -2.5363 1.4925 -1.7019 -0.0041 -0.8723 2.1670 0.7981 3.0953 2.1010 3.1024 2.0419 0.1961 -3.3691 -1.3672 0.3328 -3.5203 0.1325 -3.0822 2.3016 0.0896 0.9200 1.1233 0.8078 -2.0032 1.6206 0.7556 0.2940 -1.1892 0.5888 1.5581 -3.3607 -2.0232 -0.1815 0.1048 1.0202 -2.6471 3.5465 -0.6354 2.1072 -1.9627 -2.0950 -0.3633 -2.3789 0.8173 -1.3685 0.5333 0.1794 1.4823 1.8272 2.3409
3.8399 -4.2370 -2.0228 -3.5428 2.8620 2.2125 1.7240 -3.9983 -0.0413 -0.1513 0.2143 3.0515 -4.7109 4.1789 0.7757 0.7423 -5.2163 -1.6952 -0.7520 -1.5022 -1.5653 -0.4832 2.2549 -1.4950 1.7915 1.6801 3.6312 -0.3704 2.7035 2.8149 2.5430 -2.1982 -1.9865 1.3866 -1.4733 -2.6411 -2.7266 3.0944 -0.0198 1.1288 1.3622 1.1223 -1.9214 1.9412 0.2904 0.8564 0.0059 -0.8349 2.5143 -3.6859 -2.2592 0.1152 0.6652 0.2338 -3.7729 3.4253 1.0053 1.5696 -4.3924 -1.3300 0.3777 -1.0254 -1.6138 -0.7642 1.7067 -0.4319 0.6062 1.6344 2.7995
1.2756 -3.9097 -3.0287 -1.5258 3.5667 -1.3932 2.9516 -1.4534 -1.6820 2.5154 0.1317 2.5038 -3.7068 4.1556 -1.6067 0.8846 -1.0166 -2.5359 -1.3879 -2.3058 1.6973 -1.5636 0.0479 -0.9166 2.8264 2.5892 2.1409 0.8600 1.7369 3.4932 0.1719 -3.4289 -0.9577 0.4293 -3.3445 0.5313 -3.1576 2.2860 -0.1989 0.9162 1.3160 0.8939 -2.0093 1.8041 0.5270 0.2904 -0.9938 0.7650 1.4495 -3.2477 -1.7458 -0.2136 0.3239 1.0823 -2.8436 3.4387 -1.1164 1.6895 -1.7944 -2.0454 -0.3385 -2.1765 1.0779 -1.3203 0.6786 0.1083 1.8064 1.5961 2.4064
3.8909 -3.8330 -2.4365 -3.5458 3.2252 2.1835 2.6751 -3.4841 0.1856 1.9757 2.1497 2.9994 -4.5943 4.6613 0.7721 1.4608 -5.1879 -0.7095 -0.9175 -1.9328 -0.9567 -1.0105 2.0187 -1.7625 -0.4961 1.7520 3.0654 1.1132 -0.1980 2.8505 2.2402 -2.0904 -2.1805 0.8212 -1.7710 -2.5939 -3.1125 3.0218 -0.1600 0.8583 1.4666 0.8353 -2.1020 2.0959 0.2797 0.4722 -0.0725 -0.9633 2.4828 -3.5805 -2.1814 -0.1887 0.6778 0.0810 -3.8185 3.7324 0.9606 2.1488 -4.1856 -0.8484 0.0306 -1.2982 -1.4070 -1.1235 1.6583 -0.5940 0.7399 1.1746 2.5806
1.2926 -5.1841 -2.3555 -2.1142 4.0544 0.3548 2.2363 -2.4573 -3.8463 0.7754 0.6453 3.7506 -3.5643 4.2986 -1.3747 0.0761 -2.5554 -3.1225 1.5790 -1.7057 2.1074 -0.7849 0.8635 -1.4144 1.3658 3.0336 3.2941 -1.0301 2.2471 3.0773 1.3627 -3.4978 -0.6404 2.2345 -2.3941 -0.0843 -3.2026 2.0959 -0.4863 0.7635 1.4359 1.3135 -2.2172 1.4207 0.3192 0.5702 -0.7405 0.2440 1.8124 -3.8663 -2.0338 -0.1736 0.3298 0.8730 -2.9837 3.5833 -0.5680 1.2429 -2.9086 -3.0395 1.4326 -1.5924 0.8958 -1.0669 0.8796 -0.2196 0.3938 2.0146 2.9558
3.0868 -3.9847 -2.6494 -2.3286 4.0296 0.0681 0.3787 -4.9118 -2.7172 -0.0115 0.6727 3.6857 -4.0925 3.8555 -1.3495 0.2550 -3.1210 -4.1149 1.9867 -1.3454 1.9812 -0.8418 1.0971 -1.2650 1.7464 2.4512 3.7202 -0.6382 3.0279 3.0944 1.6429 -3.0830 -0.9070 2.4724 -1.9871 -0.2709 -3.3741 1.8886 -0.1702 0.8149 1.6192 1.4187 -2.2172 1.4488 0.5674 0.6886 -0.5115 0.2406 1.9322 -3.1415 -2.3902 -0.0769 0.4876 0.9518 -3.3113 3.3427 -0.5582 0.7752 -3.6966 -3.1684 1.6912 -1.2749 0.7932 -1.0619 1.0256 -0.0594 0.4827 2.1109 3.0991
1.5366 -4.0666 -2.9499 -1.8717 4.1009 -0.6429 0.7586 -1.3092 -2.7447 2.5963 0.3121 2.4827 -3.6966 3.7320 -1.9422 2.8149 -1.2403 -1.7732 -1.2303 -2.3046 1.7839 -1.4960 0.0766 -1.0172 2.6441 2.7963 2.1789 0.7519 1.7038 3.4599 0.2718 -3.4791 -0.9621 0.5191 -3.3475 0.5253 -3.2302 2.1985 -0.1492 0.9215 1.3402 0.8506 -2.0381 1.7304 0.5124 0.3362 -0.9858 0.6835 1.5677 -3.2970 -1.7193 -0.1865 0.3190 1.0160 -2.9645 3.3977 -1.0196 1.8034 -1.8581 -2.0781 -0.2437 -2.1733 1.0680 -1.2974 0.6627 0.0425 1.7328 1.6914 2.3947
0.8968 -1.9598 -3.5294 -2.3832 3.7274 -0.0935 0.5923 -5.0262 -2.3629 1.4316 1.4081 3.8317 -4.3719 3.3310 -1.1129 2.5508 -4.4039 -3.3515 -0.0563 -2.2601 1.0576 -0.6179 0.7088 -1.1341 1.3554 3.8187 3.1572 -0.7805 2.4670 3.3040 2.1864 -2.1004 -1.5037 2.0628 -2.4460 -0.0353 -3.1938 1.4737 -0.1493 0.9463 1.9443 1.3801 -2.0144 1.2381 0.6419 1.1863 -0.3386 0.6521 1.0967 -2.7481 -2.3251 0.2317 0.6327 1.1358 -3.3929 2.9243 -0.4998 1.5219 -4.1197 -2.7569 0.9355 -1.6922 0.6113 -0.8180 0.8500 0.0683 0.6344 2.5708 3.0146
2.8165 -4.0144 -1.5095 -1.7178 3.7254 -1.2636 2.4939 -1.4052 -3.4129 2.2385 2.9190 2.7857 -3.9172 4.1523 -1.6275 1.2581 -3.2546 -3.9097 -1.3409 -2.2897 1.5107 -1.4250 0.3235 -0.9636 0.4027 1.6941 3.9713 2.3610 0.4241 2.9761 0.6148 -3.1105 -1.0391 0.6699 -3.0663 0.4735 -3.3304 2.2928 -0.2251 0.6406 1.5616 1.3557 -2.2009 1.8795 0.5669 0.2660 -0.7576 0.8139 1.9805 -2.8299 -1.6293 -0.3940 0.4610 1.2287 -3.0387 3.4893 -1.0908 1.8456 -2.5543 -3.0982 -0.2653 -2.0154 0.9905 -1.3751 0.8533 0.1433 1.4173 1.5221 2.9528
3.5402 -3.4418 -2.5376 -2.1850 4.4795 0.6532 2.9483 -2.7222 0.2175 2.7661 0.5700 1.0416 -4.3320 4.8240 0.0009 2.0205 -4.7919 0.0329 -1.2176 -2.2377 -0.1655 -2.2094 1.2545 -1.2904 1.9934 2.2806 2.6983 0.9892 -0.0444 2.6983 1.5981 -2.0661 -2.1488 0.0880 -2.1528 -2.1692 -3.6964 2.6259 0.7338 0.4682 1.5968 0.6852 -2.4794 1.8785 0.9237 -0.1028 -0.2748 -0.7189 2.2185 -3.4239 -1.9352 -0.5796 0.5508 0.3657 -3.4536 4.0767 0.4124 2.3790 -3.7383 -0.4760 -0.4787 -1.5874 -0.8976 -1.8295 1.2536 -0.1230 1.5548 1.0904 1.9988
3.6940 -3.7570 -2.8196 -2.0313 4.3569 0.7449 3.0708 -3.4793 -0.0520 2.2370 2.4774 2.4328 -4.2653 4.7551 0.7800 1.6390 -5.1603 -0.5971 -0.8920 -2.2598 -0.4884 -1.9973 1.1612 -1.3807 -0.2001 2.4109 2.9999 1.1593 0.2706 2.9285 1.9586 -2.1602 -2.2919 0.4627 -1.9948 -2.4425 -3.5127 2.4784 0.6448 0.6615 1.5441 0.6788 -2.2901 1.7452 0.8409 0.2173 -0.2504 -0.8439 2.3397 -3.6209 -2.3099 -0.3417 0.4879 0.2663 -3.3270 3.9691 0.7415 2.3077 -4.1880 -0.9198 -0.1374 -1.5469 -1.1414 -1.6157 1.1588 -0.2138 0.8630 1.6018 2.4424
1.5861 -3.8279 -3.3692 -1.5513 3.7800 -0.6708 1.6663 -1.1182 -2.5152 1.7004 3.3185 1.7170 -3.7469 4.2122 -1.0497 3.4025 -1.9403 -1.2956 -1.4329 -2.5268 1.4294 -1.6763 0.0596 -0.9332 0.2641 1.9082 3.2042 2.6696 1.2504 2.7463 0.2432 -3.3694 -1.4050 0.2797 -3.5402 0.0990 -3.1706 2.2297 0.1749 0.9405 1.0860 0.7869 -2.0035 1.6182 0.7540 0.2596 -1.2036 0.5403 1.6426 -3.4350 -1.9724 -0.1875 0.0957 0.9836 -2.8713 3.5049 -0.5671 2.3455 -2.1101 -1.8889 -0.4137 -2.3842 0.7625 -1.3595 0.5570 0.1428 1.4134 1.8353 2.3263
1.1002 -3.4736 -3.1714 -3.6192 0.9868 -0.9552 1.8606 -0.9418 -2.0899 3.8440 1.4309 1.8564 -4.2635 2.8602 -2.0609 2.9770 -2.3229 -0.6681 -2.1878 -1.1853 1.0499 -1.5559 2.4871 1.4827 2.0503 1.8167 3.5623 2.4806 -0.5121 2.6515 -0.3934 -2.6122 -1.4662 -0.6937 -2.7427 0.0138 -1.9787 2.6911 -1.3380 1.4394 1.3093 1.0630 -1.1176 1.7512 -0.6685 -0.0418 -0.5044 0.4777 0.9949 -3.1333 -1.7637 0.0470 0.7364 1.2072 -3.3952 2.2041 -1.4992 2.0561 -2.1189 -1.4480 -1.0775 -1.4037 0.5773 -0.9557 1.7509 0.7018 2.4299 0.9260 2.4856
1.3308 -4.6089 -2.8088 -2.0508 3.6710 -0.2042 -0.5520 -2.5419 -2.3053 -0.7986 2.4609 2.9481 -4.0592 3.6734 -1.2608 1.0057 -1.3526 -3.4624 2.1106 -1.5175 2.0173 -0.7698 0.6029 -1.4014 0.5753 0.5164 3.7312 1.6512 2.7780 3.3584 1.7125 -3.3918 -0.7479 2.6237 -2.3272 -0.1752 -3.2383 1.5971 -0.3695 0.8278 1.4474 1.2683 -2.1245 1.1133 0.4072 0.9218 -0.7133 0.1860 1.6965 -3.3163 -2.2574 0.0437 0.2219 0.8522 -3.1772 3.0750 -0.6576 0.7047 -2.3045 -2.7544 1.8612 -1.4969 0.8171 -0.9690 0.6456 -0.1904 0.6741 1.7679 3.0095
1.9987 -3.6920 -0.6914 -2.7124 2.6314 -2.2403 0.0565 -4.4849 -2.7344 1.6887 3.0220 3.7997 -4.7862 3.2627 -1.5651 2.0797 -4.8342 -3.7171 2.5274 -0.3657 0.3666 -2.2708 0.5813 2.0926 0.0236 1.2061 4.2455 2.3411 0.6391 3.3870 0.9242 -1.9583 -1.9988 1.6717 -0.6540 -1.8466 -3.3644 2.1428 0.0077 0.6651 1.8842 1.7859 -1.9735 1.7927 0.1455 0.4045 0.4352 -0.1560 1.8763 -3.1307 -2.0270 -0.0606 0.7031 1.1832 -3.7012 2.7470 -1.3261 1.3741 -4.2270 -2.9222 1.5971 -0.2060 -0.4170 -1.5479 0.9913 1.1852 1.1884 1.5138 3.4431
3.1902 -3.3927 -2.8991 -2.4810 3.8484 0.4335 0.9688 -5.0636 -2.6588 -0.4186 3.3041 2.9869 -4.3092 3.9070 -0.9098 -0.1024 -3.3020 -3.6205 2.2216 -1.0535 1.9123 -0.8301 0.8767 -1.4649 -0.7987 0.8778 3.4720 1.4865 1.9119 3.8273 1.9061 -2.9765 -0.8698 2.7472 -1.8676 -0.2738 -3.3273 1.7734 -0.4128 0.6151 1.6544 1.3693 -2.2275 1.2414 0.3487 0.9460 -0.3746 0.0883 1.9230 -2.9032 -2.3808 -0.0357 0.4219 0.7810 -3.4363 3.2724 -0.3307 0.8258 -3.7491 -2.9600 1.9433 -1.0840 0.7185 -1.0450 0.8593 -0.2563 0.2380 1.8180 3.0997
0.9419 -3.4072 -3.1606 -1.5238 3.3236 -1.6296 1.0567 -0.7110 -2.1944 2.1381 -0.1054 2.6671 -3.7495 3.4257 -2.0603 2.9587 -1.5608 -1.2743 -1.5268 -2.0850 1.9473 -2.3685 1.5509 1.6791 3.4699 1.2930 1.0778 2.2687 2.3687 3.0302 -0.1983 -3.0232 -1.0525 0.0124 -3.1337 0.4430 -2.8533 1.3900 -1.1585 0.8680 1.4533 1.0181 -1.6564 1.0007 -0.4605 0.0027 -0.7816 0.7896 1.1334 -3.0491 -1.7679 -0.2304 0.4975 1.4248 -2.7747 2.8094 -1.6498 1.8306 -1.7194 -1.7218 -0.6076 -1.9596 1.1461 -1.5406 1.0613 0.9142 2.3490 1.3617 1.9929
1.1542 -4.6433 -2.8309 -1.8175 3.8622 -0.3433 1.4000 -1.3274 -3.2365 0.5958 0.5137 3.6972 -3.7693 3.9087 -1.4992 -0.5690 -2.3050 -2.6314 1.7206 -1.8108 2.2104 -0.6995 0.6075 -1.3829 1.8753 2.6315 3.3241 -0.6247 2.5653 2.9293 1.3806 -3.5619 -0.6898 2.3178 -2.6258 0.0430 -3.1022 1.8429 -0.4689 0.9705 1.2864 1.2709 -2.0371 1.3388 0.3601 0.6761 -0.9310 0.3275 1.5540 -3.4059 -2.1834 -0.0169 0.1966 0.9090 -2.9484 3.2985 -0.8256 0.6509 -2.3232 -2.6990 1.5423 -1.7639 0.9983 -0.9313 0.7121 -0.1817 0.6780 1.9339 2.9028
1.2896 -4.6086 -2.9181 -1.6344 3.7561 -0.3262 1.2237 -1.4097 -3.4205 0.3872 0.6474 3.6972 -3.5605 3.9795 -1.5043 -0.5678 -2.3200 -2.3419 1.6839 -1.8719 2.1943 -0.8022 0.5743 -1.3301 1.9452 2.5571 3.2655 -0.5303 2.8021 2.7987 1.5118 -3.5957 -0.7284 2.3397 -2.5561 -0.0024 -3.1430 1.8942 -0.3846 0.9232 1.2489 1.2469 -2.1279 1.2771 0.4324 0.5809 -0.9863 0.3523 1.6160 -3.3761 -2.2223 -0.0828 0.1564 0.9477 -2.8190 3.3067 -0.7990 0.6129 -2.3490 -2.6560 1.5006 -1.7916 0.9842 -1.0231 0.6626 -0.1253 0.6764 2.0027 2.8400
1.3479 -4.7086 -2.6586 -2.2503 3.7313 0.1688 -0.4945 -2.5822 -2.3289 1.3636 2.9781 3.2156 -3.9281 3.7550 -1.3599 1.1192 -1.4754 -3.4900 2.1350 -1.4527 2.0204 -0.6656 0.6327 -1.5008 -1.0260 2.2510 3.0341 0.7580 0.6202 3.8020 1.7308 -3.3986 -0.6682 2.6675 -2.3377 -0.1352 -3.1678 1.6328 -0.5347 0.7666 1.4333 1.2999 -2.0920 1.1043 0.2631 1.0057 -0.6702 0.1401 1.7377 -3.3952 -2.1778 0.0515 0.2050 0.7794 -3.1623 3.1349 -0.6317 0.7803 -2.3867 -2.7464 1.9091 -1.4606 0.8152 -0.9149 0.6485 -0.2991 0.3286 1.7408 2.9927
0.3564 -3.2412 -3.6421 -1.3135 3.2520 -1.2229 1.0433 -0.7466 -2.4749 1.3392 1.3065 3.6771 -3.4944 3.1288 -1.8413 2.8855 -1.9422 -1.8778 -1.1538 -2.4379 1.8996 -1.8316 1.2297 1.7629 3.0594 2.5803 2.3748 0.6195 3.2451 2.2539 -0.3675 -3.0257 -1.3398 0.0377 -3.4150 0.0661 -2.4221 1.1364 -1.0411 1.4027 0.9987 1.1292 -1.1788 0.7760 -0.4130 0.4490 -1.1858 0.7794 0.8186 -3.1077 -2.2723 0.2368 0.0850 1.4255 -2.4826 2.5956 -1.4041 1.7029 -1.8959 -2.1903 -0.3130 -2.3069 1.0167 -1.0458 0.7335 0.9578 1.6524 2.2373 2.3767
0.2437 -4.6018 -2.5207 -2.8944 0.5171 -1.6929 -0.6676 -1.9298 -3.0768 2.2410 3.0195 3.7353 -3.7741 2.4110 -2.5798 1.3525 -1.9207 -4.1238 1.7708 -1.6280 1.9937 -2.0274 1.7036 1.4595 -0.1623 2.3805 4.0279 1.6617 0.6263 4.1989 0.7670 -2.9519 -0.8385 1.9207 -2.1113 -0.3419 -1.7861 2.5946 -1.2453 1.1566 1.7007 1.8553 -0.8765 1.7240 -0.5474 0.6961 -0.2467 0.4605 1.0144 -3.4000 -2.2570 0.1319 0.6871 1.4003 -2.9136 1.8516 -1.9119 0.6069 -2.3548 -3.2557 1.4581 -1.3272 0.8470 -1.0403 1.4140 0.7857 1.1210 1.8420 3.6277
0.5736 -1.2934 -3.5279 -1.8428 1.2205 -2.7170 1.7542 -3.9234 -3.3853 2.4351 3.2963 3.0537 -3.8391 2.3006 -2.7606 -0.4058 -4.3700 -2.8235 1.9252 -1.4545 2.0060 -2.1788 1.6197 2.0998 0.2214 2.6296 4.0154 2.1495 0.9832 3.9689 1.6038 -1.8887 -1.4067 1.2544 -2.4638 -0.0510 -2.7739 1.9559 -0.6401 1.0237 1.6839 1.6958 -1.5254 1.4690 -0.1139 0.2833 -0.4282 0.7191 0.4862 -2.1807 -2.3827 -0.0565 0.6279 1.6368 -2.8839 1.8567 -2.1355 0.5385 -3.5942 -2.8845 1.2206 -1.3973 1.0031 -1.3679 1.2708 1.2426 1.4047 2.0801 3.3874

>  <OB_ATOM_TYPES> (1glpB1)
N.3 O.co2 O.co2 O.3 O.co2 O.co2 O.2 O.2 O.2 O.2 C.3 C.3 C.3 C.3 N.am N.am C.3 C.3 C.2 C.2 C.2 C.2 S.3

>  <ENSEMBLE_RMSD> (1glpB1)
1.198 1.315 1.345 1.423 1.456 1.477 1.525 1.629 1.670 1.710 1.720 1.748 1.771 1.803 1.805 1.813 1.817 1.818 1.819 1.824 1.854 1.870 1.873 1.875 1.886 1.901 1.920 1.937 1.943 2.003 2.017 2.024 2.025 2.034 2.035 2.039 2.060 2.090 2.112 2.119 2.131 2.133 2.139 2.189 2.199 2.225 2.262 2.339 2.367 2.551

$$$$
