
 OpenBabel03071213D

  6  6  0  0  0  0  0  0  0  0999 V2000
   -0.8040    0.2670  -66.1110 I   0  0  0  0  0
    2.7930   -1.5200  -67.2880 N   0  0  0  0  0
    1.5430   -1.0750  -67.5590 C   0  0  0  0  0
    2.0730   -0.5120  -65.4930 C   0  0  0  0  0
    3.1210   -1.1760  -66.0260 N   0  0  0  0  0
    1.0860   -0.4580  -66.4280 C   0  0  0  0  0
  1  6  1  0  0  0
  2  3  1  0  0  0
  2  5  1  0  0  0
  3  6  2  0  0  0
  4  5  2  0  0  0
  4  6  1  0  0  0
M  END
>  <MOLID> (1hdyB1)
1hdyB1

>  <SMILES_CANONICAL> (1hdyB1)
Ic1c[nH]nc1	

>  <FINGERPRINT> (1hdyB1)
0000000000000000000000000000000000000000000000000000000000001000001000000000000000000000000000000000000000000000000000100000000000000000000000000000000000000000000000000000000000000000000000000000000000000000000000000000010000000000000000000000000000000000000000000000000000000000000000000000000000000000000000000000000000000000000000000000000000000001000000000000000000000000000000000000000000000000000000000000000000000010000000000000000000000000000000000000000000000000000000000000000000000100000000000000110000000000000000000000000000000000000000000000000000000000000000000000000001000000000000010000000000000000001000100000000000000000000000000000000000000000100000000000000000000000000000000000000000000000100000000000100000000000000000000000000000000000000000000000000000000000000000000000000000000000000000000000000000000000000000000000000000000000000000000000000000000000000000000000000000000000000000000000000000000000000000000000001000000000000000000000000000100000000000000000000000000000000000000000000000100000

>  <MACCS166> (1hdyB1)
000000000000000000000000001000000000000000001000000100000000000010000000000101010010001000000101001000000010000000000011100100000110010010000100000000100000010010001000

>  <OB_MW> (1hdyB1)
193.934

>  <OB_logP> (1hdyB1)
1.0143

>  <OB_PSA> (1hdyB1)
28.68

>  <OB_MR> (1hdyB1)
31.3047

>  <OB_ATOMIC_CHARGES> (1hdyB1)
-0.0391617405 -0.145842503 0.1294831949 0.1294831949 -0.145842503 0.0718803566

>  <MCT_HBD> (1hdyB1)
1

>  <MCT_HBA> (1hdyB1)
2

>  <ENSEMBLE_TOTAL> (1hdyB1)
1

>  <ENSEMBLE_COORDS> (1hdyB1)
-2.4393 1.0127 0.3732 1.1577 -0.7743 -0.8038 -0.0923 -0.3293 -1.0748 0.4377 0.2337 0.9912 1.4857 -0.4303 0.4582 -0.5493 0.2877 0.0562

>  <OB_ATOM_TYPES> (1hdyB1)
I N.ar C.ar C.ar N.ar C.ar

>  <ENSEMBLE_RMSD> (1hdyB1)
0.000

$$$$
