
 OpenBabel03071213D

 25 25  0  0  0  0  0  0  0  0999 V2000
   21.5760   22.2700   22.2320 C   0  0  0  0  0
   21.5770   24.6900   21.6610 C   0  0  0  0  0
   19.1430   24.1650   27.2030 O   0  0  0  0  0
   28.3790   23.4890   21.4220 C   0  0  0  0  0
   20.7600   22.1410   26.7350 O   0  0  0  0  0
   25.0240   24.2730   24.8060 O   0  0  0  0  0
   26.3960   21.6290   21.8480 O   0  0  0  0  0
   22.1780   24.0470   23.9970 C   0  0  0  0  0
   22.6380   23.4260   26.4960 C   0  0  0  0  0
   26.9070   20.5340   24.5860 C   0  0  0  0  0
   20.4910   24.4210   27.0410 N   0  0  0  0  0
   25.0010   22.0420   24.3280 N   0  0  0  0  0
   31.1310   20.2000   24.3970 C   0  0  0  0  0
   30.5860   20.6820   25.5580 C   0  0  0  0  0
   30.4180   19.6040   23.4160 C   0  0  0  0  0
   29.1820   20.8350   25.6090 C   0  0  0  0  0
   29.0030   19.6880   23.4810 C   0  0  0  0  0
   27.8780   23.1290   22.7000 N   0  0  0  0  0
   22.2300   23.6020   22.4980 C   0  0  0  0  0
   22.9780   23.1650   24.9880 C   0  0  0  0  0
   26.4650   21.9820   24.2310 C   0  0  0  0  0
   21.1420   23.3300   26.8000 C   0  0  0  0  0
   24.4540   23.2130   24.6480 C   0  0  0  0  0
   26.8650   22.2310   22.8270 C   0  0  0  0  0
   28.4110   20.3870   24.5400 C   0  0  0  0  0
  1 19  1  0  0  0
  2 19  1  0  0  0
  3 11  1  0  0  0
  4 18  2  0  0  0
  5 22  2  0  0  0
  6 23  2  0  0  0
  7 24  2  0  0  0
  8 19  1  0  0  0
  8 20  1  0  0  0
  9 20  1  0  0  0
  9 22  1  0  0  0
 10 21  1  0  0  0
 10 25  1  0  0  0
 11 22  1  0  0  0
 12 21  1  0  0  0
 12 23  1  0  0  0
 13 14  1  0  0  0
 13 15  2  0  0  0
 14 16  2  0  0  0
 15 17  1  0  0  0
 16 25  1  0  0  0
 17 25  2  0  0  0
 18 24  1  0  0  0
 20 23  1  0  0  0
 21 24  1  0  0  0
M  END
>  <MOLID> (1hfcA1)
1hfcA1

>  <SMILES_CANONICAL> (1hfcA1)
C=NC(=O)[C@H](Cc1ccccc1)NC(=O)[C@@H](CC(=O)NO)CC(C)C	

>  <FINGERPRINT> (1hfcA1)
0000000000000011000000000000000000000001000000000011001000010000010000000001000000000001010000000000000000000001000001100000000000000000000000001000000000000000000000000000000000000000000000000000110000000000000000000000000000100000000000000000000000000100000000000010000000001000100000000000000000001000000011001100000000001000001100000000000000000000010000000000001110110000000000000100011000000000100000000000111000000000000000000000000000000000100000000000000000000000000000000000000000000000000000000001000000000000000000000000100000000000000000100000000000000000000000000000000000000000001000000000100000000000000001000000001000000001000000000000000000000001000000000011100000100000000001100001000000000000000000000000000000000001100000110101000000000000000110000000000000000000000010001000000010000000000000000000000000000000010000000000000000010000000000000001000000000000000000000000000000001100000000000000000000000010000000000000011000000000000011110010000000000000010000000000000000000010100000000010011000000000

>  <MACCS166> (1hfcA1)
000000000000000000000001000000000100000000000000010000000000000000011011010101100000000001110110001001010001011000101010000100000111000100111100010010100111011110111000

>  <OB_MW> (1hfcA1)
347.185

>  <OB_logP> (1hfcA1)
2.2807

>  <OB_PSA> (1hfcA1)
107.86

>  <OB_MR> (1hfcA1)
94.9029

>  <OB_ATOMIC_CHARGES> (1hfcA1)
1.268e-05 1.268e-05 -0.40263576 0.1065557471 -0.5395430888 -0.2733325523 -0.2711151239 0.0095333854 0.0603201221 0.0574263957 -0.2029549132 -0.1974111752 -2.0017e-05 -0.0003216891 -0.0003216891 -0.0041981876 -0.0041981876 -0.1750314238 0.0004898744 0.0845111928 0.1773680467 0.0873032104 0.2416845521 0.2658221967 -0.0199562759

>  <MCT_HBD> (1hfcA1)
3

>  <MCT_HBA> (1hfcA1)
7

>  <ENSEMBLE_TOTAL> (1hfcA1)
49

>  <ENSEMBLE_COORDS> (1hfcA1)
-4.3177 0.8665 -1.7852 -2.9900 2.6652 -2.8166 -5.8727 1.2286 2.8081 2.2263 -0.4560 -3.6425 -3.5765 0.0511 3.4822 -1.3837 -1.3565 -0.0630 1.7004 1.4927 -1.8644 -2.4118 1.9076 -0.5487 -2.3396 1.2920 1.8558 2.4173 0.0091 0.6578 -4.6948 1.5605 2.1088 0.0499 0.4428 0.2135 5.5030 -2.9590 0.3630 4.3814 -3.1353 1.2677 5.5931 -1.8455 -0.3856 3.4109 -2.2052 1.3303 4.5594 -0.8282 -0.2976 1.5532 -0.7198 -2.5724 -2.9385 1.4711 -1.8959 -2.3430 0.7670 0.4396 1.2355 -0.2386 -0.2589 -3.5934 0.8739 2.5717 -1.1884 -0.1662 0.1753 1.5281 0.2959 -1.6440 3.4915 -1.0136 0.5012
-2.2975 2.2896 -2.3785 -4.5653 1.3218 -2.3899 -5.5938 0.4470 3.2611 2.6233 1.7571 -2.9477 -3.1162 1.4063 3.5744 -0.1000 1.5593 0.9064 0.7671 -0.1714 -2.9028 -2.8375 0.3609 -0.9174 -2.8411 1.6970 1.2216 1.7301 -1.9277 -0.5952 -4.7936 0.6892 2.1265 -0.1639 -0.4404 -0.2580 5.5478 -2.4573 1.2730 5.4470 -2.1593 -0.1442 4.4346 -2.5615 2.0204 4.2397 -1.9842 -0.7110 3.1304 -2.3766 1.4087 2.5511 0.9641 -1.9314 -3.3632 1.6361 -1.5350 -2.2396 0.5253 0.4692 1.2463 -0.4927 -0.5651 -3.5720 1.2383 2.4476 -0.7309 0.6357 0.3992 1.4610 0.1234 -1.9318 3.0362 -2.0799 0.1000
-5.1967 0.9457 -1.2325 -3.7641 0.2015 -3.0868 -4.9806 1.9481 3.2744 3.9286 1.5966 -1.7384 -3.1525 0.0043 3.3782 -0.1145 2.0463 0.9290 1.5283 0.6008 -2.7198 -2.7547 1.3784 -1.1702 -2.8169 0.0302 1.0147 1.5384 -1.5528 -0.6492 -4.3937 1.4822 2.0813 -0.1441 0.1844 -0.4530 5.3366 -2.8198 0.8703 5.1853 -2.4008 -0.5111 4.2725 -2.8271 1.6929 3.9809 -2.0150 -0.9681 2.9725 -2.4024 1.2025 2.8082 1.6424 -1.0967 -3.8333 0.4075 -1.5941 -2.2275 1.1825 0.2351 1.2781 -0.0772 -0.4216 -3.4458 0.5061 2.2965 -0.7234 1.1932 0.2877 1.8811 0.7340 -1.5505 2.8371 -1.9893 -0.0706
-4.8006 -0.3158 -1.7488 -3.1084 0.1406 -3.4720 -2.9322 2.0282 4.1416 2.8375 2.4897 -2.2466 -2.3750 -0.3726 3.1288 -0.3133 2.2621 0.4463 1.1349 0.5187 -2.8740 -3.0497 1.3837 -1.3431 -3.0789 0.2500 0.9388 1.3831 -1.5269 -0.7216 -3.2240 1.7650 2.7877 -0.3823 0.1394 -0.4867 4.8445 -2.7335 1.4999 3.5147 -3.1698 1.8863 5.0087 -1.9548 0.4160 2.4426 -2.7806 1.1729 3.8530 -1.5474 -0.3629 2.5847 1.5637 -1.3831 -3.3546 0.0495 -1.9862 -2.4444 1.2796 0.0369 1.0484 -0.0591 -0.5403 -2.8286 0.5048 2.3991 -0.9401 1.2895 0.0314 1.5646 0.7108 -1.7385 2.6156 -1.9151 0.0182
-2.2294 1.9811 -2.6461 -4.6560 2.2399 -2.3876 -4.0168 2.2924 3.6082 2.3850 1.0097 -3.1332 -5.0889 0.2757 2.2233 -1.2821 -1.0119 -1.3808 1.8002 1.8403 -0.6639 -3.4603 0.6448 -0.9565 -2.9865 -0.3241 1.2808 2.1524 -0.5501 1.0945 -3.1732 1.4331 2.8754 -0.1080 -0.0270 0.3619 5.5904 -2.9368 0.1770 5.7018 -1.5021 0.3632 4.3940 -3.5386 0.2994 4.6116 -0.7719 0.6599 3.2145 -2.7535 0.6143 1.8624 0.1771 -2.2968 -3.3642 1.9823 -1.6509 -2.4205 0.4863 0.1326 1.2069 -0.4204 -0.0824 -3.8839 0.4975 2.1568 -1.2331 -0.2743 -0.4011 1.6675 0.6730 -1.0275 3.3164 -1.4223 0.7796
-4.1707 1.1585 -1.8522 -2.8200 3.1025 -2.5286 -5.9538 0.8459 2.6545 2.2897 -0.0537 -3.6966 -3.6935 -0.4438 3.2455 -1.3087 -1.3300 -0.2593 1.7176 1.7246 -1.7598 -2.3343 2.0039 -0.3819 -2.3773 1.0297 1.9010 2.4811 0.0789 0.6131 -4.7430 1.2691 2.0700 0.0952 0.4529 0.2147 5.2884 -3.1647 0.5196 5.2482 -2.1877 -0.5530 4.4325 -3.0648 1.5522 4.3744 -1.1662 -0.5004 3.4656 -1.9812 1.5922 1.6052 -0.4162 -2.6631 -2.7951 1.7797 -1.8033 -2.3047 0.7260 0.4233 1.3010 -0.1495 -0.3105 -3.6657 0.5119 2.4762 -1.1335 -0.1639 0.0895 1.5730 0.5093 -1.6451 3.4283 -1.0714 0.6020
-4.5442 1.2203 -1.3527 -3.0160 2.8702 -2.3385 -6.0293 1.3732 2.3124 1.5226 -0.2423 -3.6970 -3.6244 2.4627 2.6989 -1.2975 -1.6784 -0.3243 1.7795 1.3744 -1.5955 -2.3015 1.6396 -0.3280 -2.4950 0.5048 1.9265 2.4589 -0.1926 0.7930 -4.8740 0.5936 2.0980 0.0693 0.0573 0.3783 5.8467 -2.7545 0.2062 4.6316 -3.2599 0.8192 5.9165 -1.4715 -0.1908 3.5725 -2.4477 0.9879 4.7741 -0.5933 -0.0069 1.4298 -0.7405 -2.5095 -3.0931 1.5491 -1.6140 -2.3329 0.3334 0.4329 1.3037 -0.4825 -0.1441 -3.7138 1.3144 2.2747 -1.1472 -0.5417 0.1188 1.5239 0.1770 -1.4878 3.6397 -1.0652 0.5423
-2.9553 1.0039 -3.3243 -3.9729 2.4939 -1.6418 -3.2988 2.1967 4.1316 2.5881 -0.6421 -3.9518 -5.0321 0.9893 2.4881 -0.8099 -1.2320 0.9986 1.7128 1.4400 -2.4492 -3.1080 0.2708 -0.9950 -3.2885 -0.2169 1.3890 2.1210 0.2943 0.2472 -2.8231 1.2922 3.1620 -0.1746 0.3697 -0.5433 5.1417 -2.5853 1.1976 3.9636 -2.4381 2.0332 5.2971 -1.8105 0.1098 3.0066 -1.5529 1.7015 4.2836 -0.8287 -0.2286 1.7002 -0.8123 -3.0288 -2.8967 1.4665 -1.8895 -2.4150 0.4474 0.3393 1.1310 -0.1986 -0.7878 -3.8295 0.7696 2.3803 -1.0709 -0.2498 0.3082 1.5574 0.2533 -2.1678 3.1723 -0.7203 0.5214
-4.2619 1.3516 -2.1046 -2.6217 2.9021 -3.0949 -4.2987 -0.7946 3.5584 1.5914 -1.3665 -3.5727 -4.6166 1.6635 2.5320 -1.6060 -1.1347 -0.0438 1.3335 0.9709 -2.3184 -2.3347 2.2002 -0.7620 -2.3847 1.6491 1.6592 2.3448 0.2744 0.4736 -3.1986 -0.1296 2.9840 -0.0529 0.5810 0.1108 5.4032 -2.7215 0.7964 4.3330 -2.6378 1.7733 5.4560 -1.8401 -0.2177 3.3771 -1.6989 1.6504 4.4375 -0.8107 -0.3379 1.3943 -1.3596 -2.2975 -2.8090 1.7613 -2.1270 -2.4100 1.0894 0.2567 1.0979 -0.2180 -0.2351 -3.5425 1.0816 2.4249 -1.3285 0.0557 0.0853 1.2781 -0.1095 -1.7344 3.4189 -0.7594 0.5411
-3.6134 3.1781 -1.9973 -1.5505 1.9949 -2.6402 -5.6590 -0.4908 2.8004 1.2810 -0.9111 -3.6637 -4.5490 1.9378 2.7064 -1.5341 -1.3040 -0.2180 1.5187 1.1618 -1.9998 -2.1939 2.1308 -0.2642 -2.4561 1.0486 1.9671 2.4159 0.1169 0.5898 -4.3035 -0.3638 2.4385 -0.0032 0.3453 0.3487 5.5639 -2.7910 0.4074 5.2853 -1.9311 -0.7282 4.8357 -2.6766 1.5321 4.3034 -1.0149 -0.6528 3.7555 -1.7090 1.6034 1.1819 -1.1122 -2.3929 -2.7113 2.0129 -1.6775 -2.3684 0.8245 0.4747 1.1706 -0.3336 -0.1465 -3.8873 0.9493 2.4060 -1.2733 -0.1664 0.1674 1.2987 0.0157 -1.6135 3.4926 -0.9121 0.5526
-3.4246 3.9134 -0.7625 -4.0814 1.9787 -2.1441 -5.0280 -0.5598 2.8848 1.6524 -0.8576 -4.4135 -3.8953 1.8516 2.6860 -1.2086 -1.5092 -0.5335 0.9894 1.1139 -2.7490 -2.0720 1.8472 -0.7103 -1.9518 0.9445 1.6277 2.7071 0.1649 -0.3198 -3.6974 -0.4534 2.4325 0.2779 0.2413 -0.2214 4.9058 -2.7344 1.9489 3.8026 -1.9994 2.5391 5.2419 -2.5211 0.6644 3.1147 -1.1084 1.8028 4.5071 -1.5500 -0.1294 1.7559 -1.0502 -3.1415 -3.4676 2.4081 -0.8364 -2.0750 0.6088 0.1577 1.4061 -0.3607 -0.8885 -3.2945 0.8563 2.2933 -0.9735 -0.3396 -0.2388 1.3427 0.0033 -2.3574 3.4659 -0.8880 0.4089
-4.7727 0.4146 -2.5931 -2.7253 -0.9482 -2.6158 -4.2956 0.6569 4.0186 3.3161 2.0320 -2.8172 -4.4215 2.4726 2.0515 -0.9685 -1.3265 0.2466 2.2723 2.4763 -0.4087 -2.8928 1.0015 -1.1104 -2.3066 1.7890 1.1777 2.0173 -0.2413 0.7930 -3.2141 0.7936 3.1273 -0.0066 0.7525 -0.1298 4.6202 -3.5319 -0.0605 3.1971 -3.6285 -0.3281 5.1339 -2.4019 0.4570 2.3904 -2.5859 -0.0631 4.2640 -1.2753 0.7431 2.5796 1.1189 -2.2778 -3.6548 -0.1374 -1.7454 -2.3843 0.5966 0.2520 1.3147 0.2719 -0.4466 -3.4477 1.7329 2.1473 -1.0555 -0.1058 0.1320 2.0922 1.4300 -1.0282 2.9482 -1.3567 0.4786
-3.4884 0.6799 -2.2643 -2.5723 2.9384 -2.6378 -4.1710 -0.9156 3.6922 1.7889 0.0554 -4.6338 -3.5630 1.6360 3.1797 -1.0193 -1.3661 -0.3978 1.4801 1.8865 -2.6439 -2.3249 1.8954 -0.4148 -1.6869 1.0131 1.8364 2.6894 0.1974 -0.4953 -3.0190 -0.6163 2.9378 0.2779 0.5543 -0.4125 3.6187 -2.8810 2.3358 3.0694 -1.6076 2.7631 3.8459 -3.1105 1.0301 2.7784 -0.6602 1.8540 3.5464 -2.0828 0.0478 1.1445 -0.2232 -3.5496 -2.3797 1.6370 -1.9041 -1.9955 0.6624 0.3988 1.3580 -0.0170 -1.1789 -2.8743 0.7351 2.7112 -0.8724 -0.1674 -0.1704 1.3582 0.6694 -2.5251 3.0109 -0.9126 0.4413
-3.0447 4.2161 -0.6800 -3.9946 2.4600 -2.1292 -5.6704 -0.5163 2.4676 1.5710 -1.3959 -3.6801 -4.5727 1.9016 2.2098 -1.3977 -1.4758 -0.3308 1.6306 0.8450 -2.2376 -2.0662 1.9448 -0.6635 -2.4424 0.9816 1.6323 2.5074 0.0969 0.4748 -4.2998 -0.4098 2.1559 0.0931 0.2384 0.1387 5.7470 -2.7056 0.7000 5.4856 -1.9718 -0.5245 4.9819 -2.4964 1.7861 4.4741 -1.0868 -0.5745 3.8741 -1.5587 1.7248 1.4337 -1.4724 -2.3989 -3.3421 2.7419 -0.7996 -2.2837 0.6906 0.1551 1.2967 -0.4637 -0.2462 -3.8919 0.8987 2.0182 -1.1653 -0.3031 -0.0449 1.4618 -0.2655 -1.7382 3.6147 -0.8939 0.5847
-3.9744 -0.2072 -3.1880 -4.5263 1.3953 -1.4147 -2.5094 1.7333 3.9937 3.5140 2.4853 -2.9444 -3.2438 -0.6412 3.0084 -0.6239 2.2410 -0.5878 1.3914 0.7952 -3.3777 -2.7874 -0.3513 -1.0291 -1.6756 -0.4869 1.2139 2.4053 -0.8899 -1.0395 -1.9073 1.2571 2.8141 0.1706 0.1032 -0.9831 2.8648 -2.8850 2.7258 3.9087 -2.0186 2.2076 1.7265 -3.0553 2.0299 3.7470 -1.3968 1.0253 1.5554 -2.3901 0.7503 2.5656 2.3087 -2.0844 -3.4111 0.5895 -2.0372 -2.0062 0.3945 0.0286 1.5911 0.3910 -1.0105 -2.3785 0.0178 2.4407 -0.7537 1.0201 -0.5292 1.8483 1.1548 -2.2953 2.5090 -1.5648 0.2825
-4.1852 1.9730 -1.1149 -2.7132 3.8340 -1.7648 -4.8000 0.0039 3.2551 1.2890 -0.5613 -4.8438 -2.5100 -1.3030 2.8046 -1.2513 -1.1482 -1.1316 1.6572 1.3680 -3.0350 -1.8882 2.1580 -0.1665 -1.5312 0.5824 1.7187 2.7870 0.0079 -0.6276 -3.7677 0.6398 2.5363 0.3788 0.4355 -0.6697 3.6412 -2.4309 2.7843 3.6801 -0.9818 2.8615 3.3536 -3.0370 1.6182 3.3945 -0.2425 1.7753 3.0767 -2.2390 0.4366 1.4632 -0.8822 -3.6051 -2.7549 2.3745 -1.3847 -1.8382 0.7056 0.2457 1.4604 -0.2816 -1.2984 -2.6465 -0.1511 2.4050 -0.8851 -0.1105 -0.5839 1.5267 0.1824 -2.7353 3.0633 -0.8958 0.5199
-3.9645 3.0723 -1.6399 -2.0434 2.0437 -2.7822 -4.9438 -0.7884 3.1762 1.6529 -0.6212 -4.3660 -3.9239 1.6774 2.9923 -1.3274 -1.3558 -0.5191 1.0463 1.3330 -2.6608 -2.1541 2.0369 -0.3178 -1.9659 0.8801 1.8813 2.6048 0.2881 -0.2860 -3.6676 -0.6062 2.6077 0.1805 0.3716 -0.1659 4.6755 -2.7223 1.9314 4.6364 -2.7732 0.4805 4.0496 -1.7316 2.5911 3.9802 -1.8218 -0.2076 3.3318 -0.7119 1.8506 1.4655 -0.9113 -3.1222 -2.9621 1.9467 -1.5899 -2.1384 0.7019 0.3902 1.2998 -0.2259 -0.8496 -3.2985 0.7197 2.5492 -1.0682 -0.2145 -0.1462 1.2434 0.1730 -2.3051 3.2911 -0.7602 0.5075
-3.7218 -1.5865 -0.8514 -2.7715 -0.9353 -3.0177 -4.4728 1.3303 3.5670 3.2794 3.6099 -2.0731 -1.8640 0.7687 3.4847 -0.1044 2.5569 0.2680 1.5502 1.7938 -2.9866 -2.6736 0.6461 -1.1273 -1.9923 -0.0223 1.2373 2.3485 -0.6609 -1.3173 -3.9057 0.8462 2.3701 0.2782 0.5608 -0.8419 2.4926 -3.6642 1.7310 3.1485 -2.3842 1.9281 1.8213 -3.9097 0.5919 3.0909 -1.4431 0.9690 1.7513 -2.8915 -0.4402 3.1257 2.5012 -1.4285 -2.6109 -0.8136 -1.5223 -1.8968 0.9910 0.1235 1.7215 0.6473 -0.8771 -2.5562 0.5936 2.4864 -0.4878 1.4579 -0.1280 2.0986 1.7094 -1.8895 2.3511 -1.7017 -0.2561
-3.0053 0.1192 -2.8946 -4.6817 -1.4075 -1.9531 -5.6874 2.6006 1.9437 3.0802 2.7099 1.0030 -3.0642 3.0590 2.2632 -0.4228 1.6010 -1.1355 1.9955 0.6140 2.2489 -2.9184 -0.5119 -0.4934 -2.5109 0.8421 1.5605 1.7862 -1.6758 0.4284 -4.7637 1.5657 1.7004 -0.0768 -0.1297 0.3657 5.2357 -2.8656 -1.8063 5.3083 -2.6454 -0.3733 4.0698 -2.7007 -2.4562 4.2118 -2.2635 0.3051 2.8798 -2.3109 -1.7213 2.6739 1.7027 0.3044 -3.8213 -0.2021 -1.6646 -2.3026 0.7503 0.0658 1.3360 -0.2658 0.1135 -3.4560 1.9651 1.8702 -0.8432 0.8019 -0.3019 2.0235 0.7263 1.0252 2.9534 -2.0788 -0.3980
-2.3863 -0.8888 -2.2503 -4.6696 -1.4384 -1.5228 -5.6834 2.7364 2.1662 3.2728 2.7072 0.5883 -3.0908 3.3662 1.9650 -0.3723 0.1075 2.2153 1.4260 2.0037 -1.2136 -2.9568 -0.8872 0.1628 -2.7089 1.6568 0.3391 1.6794 -1.0396 -1.2781 -4.8287 1.9271 1.3911 -0.1624 0.0176 -0.0913 5.2764 -3.2403 -0.5094 5.3220 -1.9268 -1.1251 4.0939 -3.7843 -0.1707 4.1812 -1.2548 -1.3615 2.8615 -3.0556 -0.4181 2.9283 1.4677 0.4802 -3.4581 -0.5881 -1.2317 -2.3485 0.2946 0.8869 1.2728 -0.1391 -0.1274 -3.5412 2.4147 1.3343 -0.8645 0.1314 1.0896 1.8541 1.2410 -0.3498 2.9033 -1.8289 -0.9691
-3.8406 -0.7034 -3.1004 -3.9320 1.5856 -2.1851 -3.3133 2.4437 3.3910 2.2358 2.9277 -3.1993 -4.0169 -0.0537 2.7534 -0.5285 -1.0713 -1.3793 1.7627 2.9563 -0.5699 -3.1513 -0.2954 -0.7745 -2.0530 -0.3783 1.4415 2.7386 0.3166 0.4480 -2.4261 1.6437 2.6430 0.3600 0.5913 -0.0296 3.3868 -3.8633 1.1064 3.9051 -3.2143 -0.0846 2.6966 -3.1523 2.0154 3.7007 -1.8990 -0.2791 2.4640 -1.7362 1.8011 2.2826 1.8208 -2.5361 -3.1756 0.2817 -2.1706 -1.9889 0.2203 0.0500 1.6800 0.5595 -0.6068 -2.9622 0.4133 2.3342 -0.6618 -0.1798 -0.5467 1.8953 1.9207 -1.2194 2.9419 -1.1343 0.6973
-4.4646 0.7462 -2.9441 -4.7914 1.8328 -0.7592 -4.0240 1.1482 3.4757 2.8928 1.8738 -3.8631 -1.4350 0.6960 3.0316 -0.6915 -0.2783 -2.1534 2.1344 2.6563 -1.4323 -3.1597 -0.0026 -1.0012 -1.8903 -0.5232 1.0266 2.7163 0.2827 0.3434 -3.6429 0.3283 2.3938 0.4277 0.7094 -0.3885 3.1308 -3.6822 1.9219 4.2844 -2.9532 1.4244 1.9176 -3.1029 1.9206 4.1362 -1.7130 0.9226 1.7626 -1.7580 1.4012 2.6095 0.9778 -2.9770 -3.7770 1.1961 -1.6774 -1.9378 0.3802 -0.1899 1.7604 0.3627 -0.8305 -2.2742 0.2518 2.2542 -0.6881 0.1986 -1.0218 2.1857 1.4730 -1.7641 2.8179 -1.1004 0.8865
-2.7536 -1.8047 -2.2339 -4.7652 -0.5663 -1.5289 -5.3857 3.4158 1.4231 3.8787 2.3580 0.7798 -4.7713 1.0976 2.6017 -0.4363 1.9544 -0.7165 1.9958 1.0641 2.1467 -2.7532 -0.5787 -0.0971 -2.5454 1.1240 1.7328 1.8972 -1.5015 0.4804 -4.0993 2.8682 1.2486 0.0043 0.0322 0.5078 4.8784 -2.9134 -2.2575 3.4874 -3.3045 -2.3991 5.2518 -2.1096 -1.2460 2.5660 -2.8480 -1.5315 4.2603 -1.6314 -0.2989 3.0421 1.6113 0.1398 -3.2570 -0.5752 -1.5202 -2.2718 0.8010 0.2813 1.3934 -0.1132 0.1352 -3.9359 1.6698 1.9079 -0.8136 0.9993 -0.0416 2.1694 0.9091 0.9396 2.9635 -1.9579 -0.4536
-2.8107 2.6418 -1.2300 -0.9948 4.2060 -0.6838 -5.8895 0.8929 1.8429 0.3661 -3.4128 -3.7781 -4.0762 -1.0084 2.3563 0.0149 -0.7865 1.4550 0.3841 -0.7525 -3.5663 -1.2507 2.1768 0.6721 -2.2720 0.5432 2.1748 2.1239 -0.0475 -1.2943 -4.5218 1.2284 1.8769 -0.2595 -0.3054 -0.7963 4.9675 -0.8339 1.8094 3.9345 0.1721 1.9753 5.0510 -1.5313 0.6623 3.0522 0.3985 0.9864 4.0969 -1.2882 -0.4065 0.7782 -2.8707 -2.6811 -1.3942 2.7511 -0.7185 -1.7244 0.7414 0.7750 0.9339 -0.9834 -1.2400 -3.7144 0.1416 2.1293 -0.5627 -0.1944 0.5478 0.6468 -1.5020 -2.6278 3.1207 -0.3770 -0.2409
-4.4838 0.7723 -0.3803 -3.8508 1.8704 -2.4765 -3.0499 -1.6166 3.2847 3.2528 1.0093 -4.5997 -3.6540 0.9503 2.8683 0.8593 1.6846 0.5853 1.1003 -0.3730 -3.8664 -2.2428 1.8186 -0.6163 -1.5963 1.3535 1.7233 1.9197 -1.4683 -1.1755 -2.1315 -0.7892 2.6087 0.3341 0.3946 -1.2665 2.5737 -1.7113 3.0424 1.3055 -2.1043 2.4564 3.5861 -1.3082 2.2541 1.1400 -2.0627 1.1230 3.4030 -1.2428 0.8153 3.0454 0.7972 -3.3427 -3.3351 1.0460 -1.3215 -1.4136 0.9210 0.2797 1.6833 -0.0233 -1.5653 -2.5962 0.4957 2.4430 0.0436 1.0654 -0.0926 1.8844 0.1151 -3.0549 2.2227 -1.5941 0.2740
-3.6727 3.1953 -2.2185 -1.3766 2.4697 -2.7129 -3.7352 -0.7482 3.8572 0.5890 -3.5224 -2.5253 -4.9114 0.8295 2.0400 -0.0494 0.9224 1.7333 0.5961 -0.8930 -2.9290 -2.1316 2.6723 -0.3717 -3.1491 0.4792 0.4631 2.1311 0.2672 -0.7204 -3.1098 -0.5327 2.6128 -0.2908 0.2974 -0.4876 5.4250 -1.5624 1.3111 5.1080 -1.9099 -0.0627 4.6921 -0.6402 1.9601 4.0774 -1.3121 -0.6870 3.5759 0.0045 1.2891 0.5687 -2.7333 -1.5027 -2.5459 2.2938 -1.7742 -2.0608 1.5162 0.5959 0.8693 -0.5574 -0.5645 -3.8323 0.3032 1.7885 -0.6942 0.8925 0.6882 0.6615 -1.3940 -1.8076 3.2657 -0.3376 0.0249
-4.8568 0.8685 -0.6305 -4.1328 -0.9119 -2.1736 -3.7477 1.0440 3.6336 3.9793 2.4682 -3.1629 -1.2374 0.1747 3.2943 0.1525 2.4826 0.0325 1.8444 0.8804 -3.5602 -2.4635 0.6362 -1.2415 -1.5886 -0.2469 0.9695 2.3519 -0.9629 -1.2543 -3.3240 0.6135 2.3617 0.4162 0.5275 -1.1812 2.0591 -2.9468 2.5244 1.0225 -3.0903 1.5189 3.1434 -2.1913 2.2736 1.1481 -2.4705 0.3326 3.2720 -1.5066 0.9989 3.1804 2.1931 -2.1859 -3.7504 -0.1022 -0.9606 -1.6480 0.9148 0.0021 1.8597 0.4686 -1.1918 -2.0070 0.2106 2.3392 -0.2679 1.3961 -0.3577 2.2906 1.1793 -2.4541 2.3039 -1.6286 0.0731
-3.3094 3.9302 -1.0474 -4.2595 1.7672 -1.7451 -4.3973 -0.9229 3.1785 1.2478 -0.6035 -4.7263 -3.7288 1.5729 2.4959 -1.0576 -1.4738 -0.8427 1.7976 1.2769 -2.9296 -1.9747 1.8742 -0.7840 -1.6839 0.8497 1.4905 2.8493 0.0831 -0.5017 -3.1755 -0.6892 2.5156 0.4228 0.2928 -0.5715 4.0399 -2.5334 2.6732 4.0775 -2.9794 1.2921 3.6199 -1.2898 2.9687 3.6992 -2.1473 0.3050 3.2044 -0.3939 1.9039 1.3196 -0.9345 -3.4801 -3.3687 2.4548 -0.7398 -1.8932 0.5935 0.0153 1.5639 -0.3510 -1.1772 -2.9828 0.6406 2.2133 -0.8148 -0.3152 -0.5127 1.5767 0.1080 -2.6187 3.2277 -0.8099 0.6248
-3.0869 -2.2966 -2.0330 -4.5351 -0.4290 -1.3398 -5.5876 1.4950 1.9967 3.2376 3.7999 -0.4677 -3.3275 2.9217 1.8587 -0.3222 1.3753 -1.6478 2.1211 2.3833 1.4966 -2.3281 -0.7674 -0.2683 -2.0150 0.9632 1.4727 2.7179 -0.4374 0.8086 -4.3506 0.8294 1.8846 0.4819 0.4046 0.2984 3.2983 -4.1649 -1.2113 4.2572 -3.0851 -1.3657 2.2178 -4.0004 -0.4280 4.0718 -1.9193 -0.7193 2.0136 -2.7430 0.2646 2.8672 2.5858 -0.7030 -3.1068 -0.8655 -1.5572 -1.9007 0.6580 -0.0047 1.8879 0.5288 -0.0121 -3.2930 1.7010 1.7426 -0.5078 0.8661 -0.5445 2.2945 1.9343 0.3649 2.8944 -1.7380 0.1141
-4.2581 1.4945 -1.6980 -2.8810 3.2714 -2.6995 -3.1164 -1.5820 3.4399 0.8543 -0.2778 -4.6276 -3.6561 0.9909 2.9015 -1.2433 -1.1625 -0.7713 1.7895 1.4535 -2.8268 -2.1092 2.1870 -0.6327 -1.6595 1.2148 1.6103 2.7377 0.1078 -0.4551 -2.1807 -0.8067 2.7278 0.3257 0.5227 -0.4855 3.5723 -2.5511 2.7918 3.7107 -2.9998 1.4177 3.1848 -1.2904 3.0544 3.4541 -2.1538 0.4037 2.8963 -0.3806 1.9616 1.0917 -0.6860 -3.4262 -2.8445 1.9707 -1.9356 -1.9656 0.9117 0.1627 1.4095 -0.1878 -1.1183 -2.6305 0.4708 2.4754 -0.9384 -0.0256 -0.4158 1.4467 0.3074 -2.5431 3.0102 -0.7991 0.6888
-2.8570 1.1239 -3.3548 -4.7007 -0.4897 -3.1940 -2.9177 3.2300 3.0557 2.5142 1.6407 2.5899 -4.6605 1.3986 2.1763 -0.5256 1.7895 -0.7449 0.8913 -0.4632 2.4806 -3.0684 -0.3305 -1.3529 -2.9367 0.1341 1.1059 1.6048 -1.8638 -0.0576 -2.4527 2.1270 2.3128 -0.3589 -0.4293 -0.0886 5.5887 -1.9940 -1.6251 4.4406 -2.2122 -2.4869 5.4109 -1.7534 -0.3140 3.1956 -2.1555 -1.9802 4.0689 -1.7099 0.2367 2.1964 1.1591 1.4350 -3.8206 0.4499 -2.4070 -2.5390 0.5925 -0.2795 1.0742 -0.4519 0.0819 -3.4689 1.2907 1.9041 -1.0420 0.7285 -0.4018 1.3607 0.0662 1.4754 3.0024 -1.8772 -0.5670
-3.5823 4.1492 -0.6077 -4.3316 2.0408 -1.6314 -3.6331 -1.6888 2.8280 1.5243 -0.5463 -4.8014 -3.1670 0.9277 3.1025 -1.2759 -0.8702 -1.5851 1.9134 1.3425 -2.9612 -2.0723 2.1990 -0.6233 -1.4590 0.8897 1.4288 2.7882 0.0023 -0.4890 -2.5561 -1.0992 2.1366 0.3985 0.4743 -0.7145 3.5002 -2.6134 2.8320 2.6390 -1.4525 2.9604 4.0810 -2.8906 1.6508 2.4250 -0.6528 1.9008 3.8518 -2.0247 0.5050 1.5515 -0.8808 -3.5545 -3.5114 2.6450 -0.5183 -1.8891 0.8254 -0.0200 1.5059 -0.2893 -1.2436 -2.5049 0.2667 2.3084 -0.9050 0.0383 -0.8452 1.6761 0.1703 -2.6750 3.0327 -0.9627 0.6168
-3.8015 -1.3299 -3.1707 -4.5159 0.6482 -1.8917 -2.6210 2.8221 2.9761 2.7374 3.8125 -2.0221 -4.0010 0.6255 2.3337 -0.1667 -1.2882 -1.2095 1.7067 3.0891 0.3160 -2.9260 -0.9701 -0.8990 -2.0801 -0.4071 1.3581 2.5068 0.2748 0.7240 -1.9739 1.7746 2.2908 0.2560 0.7294 -0.1338 3.0421 -3.9584 0.3647 3.7221 -3.0477 -0.5387 2.2770 -3.4744 1.3587 3.5729 -1.7184 -0.3950 2.1034 -2.0402 1.5059 2.5180 2.5591 -1.8022 -3.3647 -0.2861 -2.1726 -1.9656 -0.0995 -0.1197 1.6677 0.8064 -0.4243 -2.8130 0.7106 2.0402 -0.5397 -0.3170 -0.5594 1.9533 2.2812 -0.5782 2.7058 -1.1964 0.6487
-3.2696 -1.8312 -1.1286 -3.7169 -0.6502 -3.2365 -4.5336 -0.0344 3.1320 3.4796 3.7116 -0.7439 -2.3220 1.4666 3.1338 -0.3417 1.7672 -1.6313 2.0100 2.6649 1.2226 -2.8978 0.6228 -1.3106 -2.4411 1.8224 0.7757 2.5801 -0.3204 0.8075 -4.0576 0.5007 1.9188 0.4030 0.6273 0.2496 2.6769 -4.2669 -0.8425 3.5188 -3.2170 -1.3878 1.8640 -4.0084 0.1972 3.4870 -1.9826 -0.8545 1.8218 -2.6747 0.7678 3.2220 2.4463 -0.7514 -2.8169 -0.7042 -2.0254 -1.9362 0.7310 -0.1458 1.8114 0.6459 -0.0711 -2.9046 1.2376 2.0785 -0.5569 1.1051 -0.6211 2.3323 2.0376 0.2155 2.5881 -1.6974 0.2517
-3.1230 3.2233 -2.5252 -3.4937 3.5820 -0.1252 -5.8945 1.7462 1.9424 1.4032 -4.6459 -0.0997 -3.7763 0.5502 3.1170 0.2943 1.3872 0.9231 0.4347 -2.8545 -1.8191 -2.5047 1.4369 -0.9646 -2.8655 -0.0559 0.9872 2.0138 -0.3978 -1.2568 -5.0115 0.9512 1.1853 -0.2557 -0.4855 -0.3296 6.0587 -0.4283 0.1669 5.4852 -1.6002 -0.4689 5.3135 0.6791 0.3324 4.2222 -1.5646 -0.9299 3.9356 0.7035 -0.1276 1.4236 -3.3947 0.2200 -2.5838 2.9361 -1.1442 -2.0031 1.0386 0.4033 1.0593 -1.0933 -0.3022 -3.9074 0.5354 1.8972 -0.5405 0.6684 0.3761 0.9099 -2.5397 -0.7299 3.4056 -0.3775 -0.7279
-4.5740 -1.7187 0.7289 -3.3922 -2.7827 -1.1378 -4.0048 4.3789 1.2987 3.3709 2.9192 0.5987 -5.1402 1.9527 1.2111 -0.5025 -0.3155 1.5729 1.6861 2.3918 -1.3993 -3.0256 -0.3932 -0.6809 -3.0260 0.8727 1.4959 1.9497 -0.6486 -1.6322 -3.1933 3.2288 1.3308 -0.0542 0.3131 -0.6133 5.0060 -3.3218 -0.2655 3.6285 -3.7628 -0.3918 5.3359 -2.0505 -0.5548 2.6808 -2.9040 -0.8087 4.3163 -1.1272 -1.0197 2.8981 1.7246 0.4751 -3.2802 -1.7433 -0.0496 -2.2811 0.5795 0.2096 1.3762 0.1815 -0.5046 -3.9230 2.0609 1.3176 -0.8678 0.1311 0.4892 1.9782 1.5668 -0.5365 3.0382 -1.5335 -1.1338
-3.4128 3.6592 -1.9356 -2.0598 1.8415 -2.8800 -3.2618 -1.6890 3.4024 0.7761 -0.9701 -4.6022 -3.5603 0.9630 3.1895 -1.5320 -1.1050 -0.7875 1.1859 1.1249 -3.0127 -1.9942 2.3009 -0.4471 -1.6722 1.1477 1.7370 2.5968 0.0411 -0.6397 -2.3525 -0.9475 2.6231 0.1932 0.4090 -0.4464 3.7910 -2.1909 2.8076 3.7952 -2.8057 1.4921 3.4230 -0.9053 2.9514 3.4238 -2.0921 0.4142 3.0153 -0.1362 1.7906 0.9799 -1.1717 -3.3434 -2.8674 2.2764 -1.6803 -2.0351 0.9747 0.2786 1.2163 -0.3531 -1.1192 -2.6517 0.3972 2.5904 -1.1124 -0.0297 -0.3666 1.1169 -0.0280 -2.5913 2.9988 -0.7114 0.5751
-2.1046 -1.0048 -2.5866 -3.6768 -2.3796 -1.2893 -5.3863 2.4777 1.6111 3.1726 3.9336 -0.2999 -4.0287 0.5819 2.9089 -0.4368 1.7370 -1.3391 2.1895 2.3690 1.6115 -2.1282 -0.8699 -0.1069 -2.0532 0.9534 1.6258 2.7447 -0.4009 0.6701 -4.0312 2.2548 1.2932 0.4884 0.4902 0.3868 2.8782 -4.0821 -1.5034 3.6277 -2.9263 -1.9621 2.1471 -4.0102 -0.3767 3.5877 -1.7775 -1.2634 2.0961 -2.7695 0.3735 2.8728 2.7117 -0.5888 -2.9699 -1.0492 -1.3498 -1.9069 0.6009 0.1623 1.8683 0.6288 -0.0135 -3.4836 1.2123 2.0070 -0.5527 1.0127 -0.3534 2.3141 1.9976 0.4458 2.7718 -1.6915 -0.0633
-3.2183 -2.8137 -0.6958 -4.7241 -0.8771 -0.5779 -5.7762 2.3203 1.1992 3.1868 3.4816 0.2537 -3.4217 3.5646 0.9197 -0.3288 1.2937 -1.5081 2.1314 1.7427 1.9857 -2.4307 -0.7398 0.3522 -2.2079 1.5400 1.2954 2.4576 -0.9371 0.7873 -4.5808 1.6128 1.4335 0.3108 0.1799 0.4231 4.0494 -3.7428 -2.0292 2.7999 -3.9943 -1.3351 4.7408 -2.6154 -1.7833 2.3115 -3.0817 -0.4771 4.2274 -1.6409 -0.8336 2.8397 2.3099 -0.1618 -3.2881 -1.3075 -0.7523 -2.0256 0.6869 0.0596 1.7290 0.2322 0.1598 -3.4568 2.3644 1.1711 -0.6035 0.7590 -0.4359 2.2380 1.5110 0.7829 3.0405 -1.8485 -0.2331
-3.1182 4.2917 -1.1561 -3.9436 2.1767 -2.1052 -3.2949 -1.6732 3.1500 0.6957 -1.2291 -4.5807 -3.6660 0.9408 2.7078 -1.3770 -1.1949 -1.0122 1.6929 0.8100 -3.1737 -1.8624 2.2101 -0.7667 -1.6308 1.1005 1.4605 2.7448 -0.0677 -0.6422 -2.3136 -0.9401 2.4542 0.3319 0.3313 -0.6447 3.7869 -2.0669 2.9957 3.8793 -2.7583 1.7221 3.3926 -0.7819 3.0377 3.5581 -2.1193 0.5824 3.0372 -0.0944 1.8103 1.0315 -1.4146 -3.3477 -3.2406 2.8052 -0.9267 -1.9233 0.9039 -0.0099 1.3921 -0.4912 -1.1776 -2.6686 0.3782 2.2683 -0.9774 -0.1057 -0.6069 1.3807 -0.2683 -2.6721 3.0927 -0.7429 0.6335
-0.8138 3.1296 -0.4789 -3.0463 3.7596 -1.2672 -3.1265 0.6918 4.2340 0.9952 -1.9545 -4.6483 -4.6919 0.6727 2.0704 -1.4079 -1.6133 -1.1565 1.1431 0.4289 -3.4507 -2.5662 1.3833 -0.8310 -3.0530 -0.4760 0.7692 2.6260 -0.0146 -0.9125 -2.6756 0.0567 3.0587 0.1971 0.0212 -0.7952 4.0135 -1.3802 2.9014 4.1592 -2.2107 1.7193 3.4649 -0.1560 2.8022 3.7170 -1.7709 0.5274 2.9974 0.3250 1.5143 1.2949 -1.8950 -3.3933 -2.2850 2.8012 -0.3848 -1.9709 0.3621 0.1187 1.3344 -0.6925 -1.3297 -3.5735 0.1699 2.0201 -1.0567 -0.5415 -0.6733 1.2328 -0.6350 -2.8411 3.0918 -0.4619 0.4268
-2.8243 1.3629 -2.3362 -1.3497 3.2848 -2.7858 -5.3563 -0.2323 1.9455 -0.0046 -4.3435 1.4325 -4.6444 2.3609 1.9728 0.1640 0.7017 1.7616 -0.5278 -3.0591 -0.8503 -1.4930 2.4235 -0.4977 -2.3365 1.8055 1.7234 1.8218 -1.3092 -1.3676 -3.9949 0.1256 2.0006 -0.1362 -0.3262 -0.2943 5.6493 0.4231 -0.5441 5.3227 -0.9069 -0.0622 4.7414 1.1318 -1.2383 4.1216 -1.4469 -0.3379 3.4362 0.5608 -1.5142 0.6565 -3.2715 1.1463 -1.5258 2.0361 -1.9582 -1.7693 1.2585 0.4285 0.9287 -1.2871 -0.1447 -3.7927 1.4822 1.8789 -0.4796 0.5343 0.7298 0.2559 -2.6313 -0.0046 3.1371 -0.6776 -1.0836
-3.6035 -3.1068 0.4094 -1.2061 -2.9703 0.9730 -3.9368 4.0374 0.7509 2.4258 4.2170 -0.4884 -4.9941 1.5805 0.9204 -0.0858 0.5078 1.5653 1.2967 2.5750 -2.2917 -2.2884 -1.1656 -0.3338 -2.8613 0.6048 1.3730 2.3767 -0.1533 -1.5778 -3.0994 2.9351 1.0093 0.1667 0.5139 -0.7390 3.4747 -3.8406 0.3139 3.8115 -2.5717 0.9338 2.8337 -3.8626 -0.8678 3.4614 -1.4163 0.3395 2.4527 -2.6165 -1.5071 2.5555 2.9380 -0.3695 -2.4732 -2.1771 0.7727 -2.0295 0.2433 0.1586 1.5799 0.7923 -0.7043 -3.7859 1.7419 1.0575 -0.5586 0.4325 0.4349 1.7619 2.2006 -1.2171 2.7254 -1.4394 -0.9157
-2.0508 -2.9796 -0.7165 -3.9645 -1.4400 -0.8476 -5.8954 1.6070 1.1452 3.4438 3.7814 0.3172 -3.7582 3.1896 0.8882 -0.2848 1.9195 -1.1116 2.3560 2.0142 1.9814 -1.9415 -0.8204 0.4351 -2.2625 1.4127 1.4483 2.7405 -0.6027 0.6248 -4.6174 1.1003 1.4549 0.5439 0.4755 0.5032 2.7563 -3.9110 -2.0860 3.5700 -2.7377 -2.3524 1.9934 -3.9658 -0.9797 3.5672 -1.7054 -1.4895 1.9790 -2.8468 -0.0558 3.0849 2.6307 -0.1439 -2.4579 -1.5285 -0.7915 -1.8414 0.6685 0.2012 1.9302 0.5699 0.1131 -3.6163 2.0167 1.2181 -0.4582 1.0907 -0.2202 2.4623 1.8166 0.7724 2.7214 -1.7554 -0.3086
-0.9981 3.9246 -1.7705 -2.8837 3.8184 -0.1960 -5.2159 1.7107 2.6799 0.9561 -5.1495 -0.8671 -3.7303 -0.4979 2.5392 0.2637 0.3445 1.3795 -0.0485 -3.0900 -2.2246 -1.7636 1.7384 -0.9476 -3.0177 0.0023 0.3159 1.9230 -0.9113 -1.5158 -4.5432 1.4087 1.4788 -0.3132 -0.8435 -0.5300 5.0702 0.8598 0.7765 5.0729 -0.5647 0.4952 4.0725 1.6368 0.3188 4.0776 -1.1104 -0.2268 3.0000 1.0499 -0.4623 1.2097 -3.9501 -0.4621 -1.5663 3.1900 -0.5820 -1.7902 0.8826 0.2949 0.9162 -1.5937 -0.6152 -3.7865 0.2621 1.5776 -0.5109 0.1045 0.4551 0.6089 -2.9517 -1.1952 2.9972 -0.2704 -0.7162
-2.6914 -2.4422 -2.1593 -4.3948 -0.9318 -1.2201 -4.7983 3.3314 0.7108 3.3322 3.1447 2.3513 -4.5762 0.9353 1.8885 0.0099 1.4809 -1.1359 1.9731 0.9440 2.9821 -2.1112 -0.9824 -0.2660 -2.2302 0.8370 1.4384 2.6692 -0.9567 0.7891 -3.5312 2.7282 0.8289 0.4883 0.1511 0.7038 2.9676 -2.9519 -2.9812 3.8160 -1.8121 -2.6815 2.0833 -3.3942 -2.0697 3.7245 -1.1998 -1.4872 1.9746 -2.7274 -0.7861 3.0100 2.3196 1.4124 -2.9262 -1.0903 -1.5322 -1.8057 0.4643 0.0355 1.9157 0.3489 0.6577 -3.5866 1.4800 1.4090 -0.3501 0.7638 -0.2053 2.2799 1.2294 1.8263 2.7575 -1.6698 -0.5094
-0.5811 3.4343 -1.0553 -2.4896 3.3507 -2.6046 -4.4458 1.6235 3.4445 0.7001 -5.0055 0.9211 -5.0676 0.8750 0.9543 0.3594 0.7932 1.1837 -0.0486 -3.5800 -1.1990 -1.9665 1.3790 -1.2179 -2.9074 -0.0729 0.5966 1.8609 -1.3334 -1.3898 -3.4897 0.9401 2.6671 -0.2677 -0.8751 -0.3021 5.0538 1.2102 -0.0953 5.0809 -0.2162 0.1752 4.0405 1.7440 -0.8008 4.0863 -1.0042 -0.2703 2.9576 0.8956 -1.2686 0.8658 -3.7247 0.9356 -1.9737 2.8897 -1.2644 -1.8157 0.8940 0.2044 0.9549 -1.6334 -0.2122 -3.9498 0.6420 1.4031 -0.4599 0.2802 0.4256 0.5348 -3.0844 -0.2372 2.9680 -0.4217 -0.9940
-0.8152 0.5932 3.4891 -0.1118 -1.7569 3.3195 -5.6624 1.6858 1.6412 2.5579 2.2282 -4.1153 -4.3172 2.0627 -0.6456 -0.2170 2.1947 0.1131 0.3930 0.5687 -3.7935 -1.3819 -0.7646 1.4632 -2.9374 0.1621 -0.2278 1.9439 -0.9782 -1.6931 -4.7177 0.7283 1.2263 -0.1138 0.2015 -1.0597 3.4469 -2.6300 1.9645 4.1784 -1.5829 1.2739 2.3323 -3.1425 1.4140 3.6956 -1.0613 0.1306 1.8169 -2.5893 0.1749 1.9070 2.1332 -3.0033 -0.3597 -0.4891 2.5410 -1.7681 0.4676 0.6790 1.2373 0.3536 -1.5469 -4.0547 1.1096 0.0805 -0.6211 1.0540 -0.1023 1.1316 1.0016 -2.9116 2.4374 -1.5499 -0.4118
-1.5564 1.3788 -3.1723 -2.7637 -0.6467 -3.8464 -3.3301 3.0846 2.8432 1.3686 0.0201 4.5681 -4.7007 1.4556 1.2211 0.0640 1.7358 0.1079 0.5483 -1.9010 2.9127 -2.0792 -0.3983 -1.4990 -2.7939 0.0590 0.8598 2.2503 -1.6852 0.4720 -2.6949 1.9519 2.2963 0.0725 -0.5568 0.4587 3.7856 -0.6272 -3.3855 3.9173 0.2874 -2.2662 3.2175 -1.8331 -3.2077 3.4550 -0.0634 -1.0533 2.6995 -2.2039 -1.9028 1.7483 0.0474 3.3342 -2.5614 0.3432 -2.7251 -1.9480 0.5191 -0.3057 1.3764 -0.6019 1.0710 -3.5168 1.2343 1.4541 -0.5031 0.6457 0.1028 1.1545 -0.9009 2.5337 2.7904 -1.3445 -0.8717

>  <OB_ATOM_TYPES> (1hfcA1)
C.3 C.3 O.3 C.2 O.2 O.2 O.2 C.3 C.3 C.3 N.am N.am C.ar C.ar C.ar C.ar C.ar N.am C.3 C.3 C.3 C.2 C.2 C.2 C.ar

>  <ENSEMBLE_RMSD> (1hfcA1)
1.414 1.417 1.423 1.541 1.579 1.591 1.641 1.709 1.744 1.938 2.005 2.010 2.050 2.075 2.102 2.126 2.137 2.143 2.152 2.176 2.213 2.274 2.281 2.329 2.329 2.373 2.433 2.433 2.444 2.450 2.486 2.487 2.497 2.503 2.514 2.534 2.562 2.581 2.615 2.649 2.651 2.768 2.804 2.834 2.881 2.897 2.982 3.069 3.137

$$$$
