
 OpenBabel03071213D

 11 11  0  0  0  0  0  0  0  0999 V2000
   -7.0560   -7.7750   37.2130 N   0  0  0  0  0
   -4.7600   -5.0800   37.7940 O   0  0  0  0  0
   -5.8080   -5.7180   36.0100 O   0  0  0  0  0
   -4.8340   -7.9620   38.3460 C   0  0  0  0  0
   -2.7550   -9.1530   37.5650 N   0  0  0  0  0
   -2.1760   -9.4470   36.4260 C   0  0  0  0  0
   -3.9360   -8.2880   35.9400 C   0  0  0  0  0
   -2.8820   -8.9340   35.4810 N   0  0  0  0  0
   -6.0380   -7.0580   37.9650 C   0  0  0  0  0
   -5.5070   -5.8510   37.2060 C   0  0  0  0  0
   -3.8620   -8.4410   37.3110 C   0  0  0  0  0
  1  9  1  0  0  0
  2 10  1  0  0  0
  3 10  2  0  0  0
  4  9  1  0  0  0
  4 11  1  0  0  0
  5  6  1  0  0  0
  5 11  1  0  0  0
  6  8  2  0  0  0
  7  8  1  0  0  0
  7 11  2  0  0  0
  9 10  1  0  0  0
M  END
>  <MOLID> (1hslB1)
1hslB1

>  <SMILES_CANONICAL> (1hslB1)
N[C@H](C(=O)O)Cc1cnc[nH]1	

>  <FINGERPRINT> (1hslB1)
0000000000000000000000000000001000000000000000000000000000000000000000000000000000000000000000000000000110000000000001000001000000000100000000000000000001000000000000000000000000000000000000000000000000000000001000000000000000000000000000000000000000000000000000000100000000001001000000000000000000001001000000100000000000100000000000001000000000000000010100000000000100111000000000000000010000000000100000000000000000000000000100000000100000000000000000000000001000000000000000000000000000001100000000000000110000000000000000000000000000000000000011100000000000000000000000000000000001000000000000000001100001000000000000000000000000000001000000000000000000001100000000000001000000000000000010100000000000100011000000000000000011000000000000000000000000000000000100000000000000000100000100000000000100000000000000000000001000000000000000000000000000000000000000000000000000000000000000000000000000000100000000000000000000000100000000000100011000000000000000000100000000000000000000000000000000100000000000000000000000000000

>  <MACCS166> (1hslB1)
000000000000000000000000000000000000000000001000000011000000000010000000000111110011000001000011001000010000001000000011101000000010000110110100010000100111111010011000

>  <OB_MW> (1hslB1)
155.069

>  <OB_logP> (1hslB1)
0.0644

>  <OB_PSA> (1hslB1)
92

>  <OB_MR> (1hslB1)
37.6469

>  <OB_ATOMIC_CHARGES> (1hslB1)
-0.1203970323 -0.2440377051 -0.2440377051 0.0780375053 -0.2267547942 0.1986491625 0.1153903166 -0.2212318916 0.200255402 0.3822569337 0.0818698082

>  <MCT_HBD> (1hslB1)
3

>  <MCT_HBA> (1hslB1)
5

>  <ENSEMBLE_TOTAL> (1hslB1)
18

>  <ENSEMBLE_COORDS> (1hslB1)
-2.5456 -0.1653 0.1896 -0.2496 2.5297 0.7706 -1.2976 1.8917 -1.0134 -0.3236 -0.3523 1.3226 1.7554 -1.5433 0.5416 2.3344 -1.8373 -0.5974 0.5744 -0.6783 -1.0834 1.6284 -1.3243 -1.5424 -1.5276 0.5517 0.9416 -0.9966 1.7587 0.1826 0.6484 -0.8313 0.2876
-2.3948 0.3458 1.5870 -0.2322 2.6331 0.7063 -1.8773 2.0762 -0.7717 -0.9709 -0.6600 -0.0789 1.2718 -1.5634 0.6392 2.4674 -1.7763 -0.0457 1.1354 -0.9237 -1.4732 2.4302 -1.4064 -1.3139 -1.1206 0.4825 0.9012 -1.1541 1.7934 0.1717 0.4450 -1.0011 -0.3220
-1.8859 -0.3784 0.3500 -1.7948 2.8441 1.2659 -1.3988 2.2158 -0.8902 0.4479 0.4593 0.8477 1.0535 -1.9568 0.5012 1.6468 -2.6445 -0.5551 1.5089 -0.6181 -1.1992 1.9380 -1.8818 -1.5944 -1.0549 0.6549 0.9381 -1.4297 1.9598 0.3047 0.9689 -0.6542 0.0314
-2.3476 -0.0084 -0.1713 -0.9446 2.7739 1.3354 -0.5419 2.1184 -0.8093 -0.3479 -0.3913 1.2516 1.6557 -0.2720 -0.2678 2.2505 -1.1961 -1.1249 0.5215 -2.1678 -0.3465 1.6028 -2.3451 -1.2036 -1.4491 0.5545 0.8179 -0.9299 1.8709 0.3224 0.5305 -0.9372 0.1961
-2.4981 -0.1949 0.7250 -0.7217 2.7896 0.5205 -1.1413 1.3840 -1.2234 -0.1565 -0.2665 1.4407 0.3656 -1.8097 -0.4879 1.4789 -1.9433 -1.3153 1.9407 -0.3348 0.0054 2.4454 -1.0785 -1.0565 -1.3398 0.6054 1.0732 -1.0782 1.5978 -0.0218 0.7051 -0.7491 0.3401
-2.7110 0.2590 0.5977 -1.1264 2.4213 1.4685 -0.7140 2.6056 -0.7619 -0.3856 -0.3301 0.9775 1.7654 -0.3287 -0.3265 2.4351 -1.3104 -1.0547 0.6779 -2.2546 -0.3047 1.8192 -2.4795 -1.0679 -1.3517 0.4680 0.1327 -1.0412 1.9334 0.2070 0.6323 -0.9839 0.1322
-2.0561 0.1684 1.6647 -0.3295 2.7485 0.2483 -2.4441 2.1579 -0.3680 -0.8547 -0.4611 -0.3339 0.9100 -2.1782 0.1742 2.2705 -2.2622 -0.1207 1.6088 -0.4256 -0.9791 2.7305 -1.2315 -0.8092 -0.9909 0.5698 0.7626 -1.3737 1.8868 0.1562 0.5291 -0.9729 -0.3951
-1.2088 0.3205 2.0163 0.0773 2.0477 0.2214 -2.0304 2.4683 -0.5200 -1.1684 -0.7857 -0.2215 1.0670 -1.5507 0.6629 2.3401 -1.6061 0.0988 1.0728 -0.8254 -1.4237 2.3886 -1.1803 -1.1512 -1.5919 0.3991 0.6199 -1.2301 1.7373 0.0503 0.2840 -1.0247 -0.3531
-2.3673 0.0898 -0.5054 -0.2326 1.9754 -0.6459 -1.2692 2.7969 1.2024 -0.5771 -0.5559 1.1120 1.7712 -0.4193 0.2340 2.4895 -1.1814 -0.6855 0.5111 -1.9768 -0.6977 1.7712 -2.1214 -1.2743 -1.5661 0.4826 0.6345 -1.0243 1.8652 0.4482 0.4936 -0.9551 0.1776
-2.1989 -0.4202 0.2495 -0.8727 1.6952 -1.1175 -1.7204 2.9004 0.6146 0.0347 0.0603 1.2998 0.7593 -2.0673 0.1702 1.7324 -2.3495 -0.7869 1.7779 -0.2351 -0.5310 2.3642 -1.2801 -1.2371 -1.3437 0.5469 0.9061 -1.3431 1.8354 0.1446 0.8104 -0.6859 0.2877
-2.8046 0.3473 0.0997 -0.5909 2.6868 -0.4782 -1.1063 2.2100 1.6881 -0.6570 -0.5518 0.7331 1.8262 -0.7028 0.4035 2.6295 -1.3902 -0.5050 0.6205 -1.8678 -1.0356 1.9470 -2.0997 -1.3868 -1.3696 0.5279 -0.0488 -1.0334 1.8759 0.5155 0.5384 -1.0357 0.0145
-2.1670 -0.3711 0.7387 -2.2634 1.7987 -0.7270 -0.3161 2.6474 0.0605 0.1732 0.0806 1.3610 0.7505 -2.0565 0.1674 1.5909 -2.3496 -0.9053 1.6579 -0.2314 -0.6871 2.1527 -1.2848 -1.4495 -1.2044 0.6569 1.0918 -1.1838 1.7830 0.0912 0.8095 -0.6731 0.2584
-2.2310 -0.2225 0.0974 -1.4693 2.9054 1.1050 -0.6389 2.1272 -0.8715 -0.0152 -0.0740 1.2570 0.6818 -0.6499 -1.1154 1.6056 -1.5489 -1.6337 1.6170 -1.8593 0.4820 2.1884 -2.3005 -0.7128 -1.3307 0.5862 0.8982 -1.1219 1.9212 0.2374 0.7142 -0.8849 0.2564
-1.9228 0.0956 1.6070 -0.5679 2.9374 0.3952 -2.5491 2.1122 -0.3733 -0.7239 -0.2944 -0.4596 0.7710 -2.2940 -0.2009 2.1506 -2.4726 -0.2905 1.8207 -0.3931 -0.6180 2.8185 -1.3591 -0.5357 -0.9305 0.6516 0.7024 -1.4730 1.9492 0.1821 0.6064 -0.9328 -0.4089
-2.3814 0.4405 1.6551 -1.8609 1.9021 -0.7816 -0.2648 2.7350 0.6105 -0.9643 -0.6667 0.0435 1.4026 -1.3266 0.6339 2.5041 -1.6702 -0.1491 0.9582 -1.1683 -1.5260 2.2814 -1.5895 -1.4495 -1.0916 0.5085 0.9873 -1.0164 1.8299 0.2764 0.4331 -0.9946 -0.3004
-2.3066 -0.0445 0.2506 -1.1366 2.5980 1.7179 -1.7386 2.7813 -0.4737 -0.1253 0.3384 -0.7264 2.0320 -0.8879 -1.0798 2.5466 -2.0894 -0.5954 0.6084 -1.9095 0.2653 1.7265 -2.7339 0.2150 -1.0386 0.6431 0.4427 -1.3485 2.1100 0.4699 0.7807 -0.8057 -0.4860
-1.9165 -0.2845 0.2287 -1.9064 3.0210 0.5463 -0.7410 1.7273 2.0179 0.1822 0.7470 -0.7275 1.5577 -0.9907 0.4582 2.0159 -2.2542 0.0880 0.8658 -1.5572 -1.5645 1.6231 -2.6343 -1.1150 -1.2378 0.9179 -0.2164 -1.2501 1.8942 0.9198 0.8072 -0.5866 -0.6354
-0.0102 1.5976 1.7348 -2.8647 1.8696 0.0998 -0.9295 1.8025 -1.1022 -0.6974 -0.6413 0.8705 0.6157 -2.2741 -0.4916 1.8933 -2.2627 -1.0475 1.6145 -0.3278 -0.2072 2.5263 -1.1125 -0.9037 -1.0531 0.8095 1.1116 -1.5640 1.5335 -0.0947 0.4691 -0.9943 0.0302

>  <OB_ATOM_TYPES> (1hslB1)
N.3 O.co2 O.co2 C.3 N.ar C.ar C.ar N.ar C.3 C.2 C.ar

>  <ENSEMBLE_RMSD> (1hslB1)
0.000 0.831 0.885 0.890 0.935 0.994 1.097 1.102 1.104 1.122 1.144 1.161 1.202 1.218 1.230 1.377 1.533 1.591

$$$$
