
 OpenBabel03071213D

 14 13  0  0  0  0  0  0  0  0999 V2000
   18.5030    8.9750    8.9710 C   0  0  0  0  0
    9.7710   -2.1130    4.9570 C   0  0  0  0  0
   17.3110    8.0680    9.2930 C   0  0  0  0  0
   11.2190   -2.2010    5.4060 C   0  0  0  0  0
   17.5790    6.5880    9.0430 C   0  0  0  0  0
   11.3450   -1.6240    6.8170 C   0  0  0  0  0
   16.3900    5.6600    9.2050 C   0  0  0  0  0
   16.8170    4.2020    9.2800 C   0  0  0  0  0
   12.7420   -1.1130    7.1890 C   0  0  0  0  0
   15.6050    3.2790    9.2370 C   0  0  0  0  0
   12.7340   -0.2730    8.4590 C   0  0  0  0  0
   15.8450    1.8510    9.7580 C   0  0  0  0  0
   13.6080    0.6240    9.0120 C   0  0  0  0  0
   15.1300    0.6450    9.1090 C   0  0  0  0  0
  1  3  1  0  0  0
  2  4  1  0  0  0
  3  5  1  0  0  0
  4  6  1  0  0  0
  5  7  1  0  0  0
  6  9  1  0  0  0
  7  8  1  0  0  0
  8 10  1  0  0  0
  9 11  1  0  0  0
 10 12  1  0  0  0
 11 13  1  0  0  0
 12 14  1  0  0  0
 13 14  2  0  0  0
M  END
>  <MOLID> (1icnA1)
1icnA1

>  <SMILES_CANONICAL> (1icnA1)
CCCCCCC/C=C/CCCCC	

>  <FINGERPRINT> (1icnA1)
0000000000000000000000000000000000000001000000000000000000000000000000000000000000000000000000000000000000000000000000000000000000000000000000000000000000000000000000000000000000000000000000000000000000000000000000000000000000000000000000000000010000000010000000000000000000000000000000000000000000010000000000000000000000000000000000000000000000000000010000000000000000000000000000000000000000000010000000000000000000000000000000000000000000000000000000000000000000000100000000000000000000000000000000000000000000000000000000000000000000000000000000000000000000000000000000000000000000000000001000000000000000000000000000000000000000000001000000000000000000000000000000000000000000000000000000000000000000000000000000001000000000000000000000000000000000000000000100000000000000100000000000000000000000000000000000000000000000000000000000000100000001000000000000001000000000000000000000000000000000000000000000000000000000000000000000000000000000000000000000000010010000000010000000000000000000000000000000000000000000000000

>  <MACCS166> (1icnA1)
000000000000000000000000000000000000000000000000000000000000000000000000000000000000000000000000001000000001000001110100000000011000000000001000001010000010000100000000

>  <OB_MW> (1icnA1)
196.219

>  <OB_logP> (1icnA1)
5.4834

>  <OB_PSA> (1icnA1)
0

>  <OB_MR> (1icnA1)
68.938

>  <OB_ATOMIC_CHARGES> (1icnA1)
0 1.335e-07 5e-10 1.06774e-05 1.33e-07 0.000344441 1.06774e-05 0.000344441 0.004656121 0.004656121 0.0256952504 0.0256952504 -0.0307066233 -0.0307066233

>  <MCT_HBD> (1icnA1)
0

>  <MCT_HBA> (1icnA1)
0

>  <ENSEMBLE_TOTAL> (1icnA1)
50

>  <ENSEMBLE_COORDS> (1icnA1)
2.9043 6.5044 1.4986 -4.7505 -4.7723 -2.9595 3.2838 5.3720 0.5753 -3.5301 -3.9128 -2.7484 2.9801 4.0536 1.2390 -2.9575 -4.1750 -1.3801 2.4145 3.0934 0.2214 2.3564 1.7056 0.8078 -1.7518 -3.2966 -1.1540 0.9430 1.1838 0.7323 -1.8185 -2.6892 0.2255 0.8721 -0.1862 1.3578 -0.5176 -2.0639 0.5610 -0.4282 -0.8168 1.0233
4.1896 5.9149 0.8627 -4.5371 -4.7395 -3.0289 2.7760 5.4558 1.1185 -3.3202 -4.7654 -2.1384 2.7841 4.0090 1.5425 -3.0286 -3.3704 -1.6471 1.5223 3.3320 1.0692 1.7866 1.8587 0.8914 -1.9180 -3.4072 -0.6274 0.5385 1.1689 0.4000 -1.5587 -1.9958 -0.2366 0.8780 -0.2280 -0.0617 -0.5924 -2.0115 0.8881 0.4800 -1.2215 0.9677
3.7307 6.5820 0.6660 -4.5541 -5.8339 -2.5915 3.3204 5.5113 1.6452 -3.6079 -4.6668 -2.7225 3.2338 4.1822 0.9381 -3.3103 -4.1018 -1.3564 2.1981 3.3200 1.6152 2.2834 1.9116 1.0838 -2.1195 -3.1795 -1.4356 0.8940 1.3480 0.9215 -2.0048 -2.3923 -0.1538 0.9731 -0.1505 0.7749 -0.6436 -1.8172 -0.0445 -0.3933 -0.7131 0.6597
4.2572 5.9781 1.0202 -4.5471 -4.7975 -3.0952 2.8276 5.5195 1.1634 -3.6186 -4.8235 -1.9071 2.8024 4.0615 1.5455 -2.9412 -3.4839 -1.7712 1.5856 3.3993 0.9496 1.7923 1.9066 0.9390 -2.1017 -3.4593 -0.5186 0.6078 1.2278 0.2984 -1.2059 -2.2473 -0.5491 0.9343 -0.2243 0.0478 -0.6699 -1.9793 0.8071 0.2774 -1.0776 1.0702
3.7256 6.3813 1.5125 -4.4800 -5.5097 -2.6640 2.5896 5.4490 1.1749 -3.4137 -4.4446 -2.6089 3.0125 4.0236 1.4273 -3.1400 -4.0788 -1.1716 2.0472 3.0854 0.7485 2.6204 1.6900 0.7304 -1.9518 -3.1528 -1.0982 1.6719 0.7610 0.0135 -2.1916 -2.1055 -0.0384 0.8443 0.0011 1.0212 -0.9008 -1.6705 0.5467 -0.4337 -0.4294 0.4059
3.6995 6.2621 0.3783 -4.1423 -2.8736 -3.4023 2.4252 5.4582 0.4413 -3.0992 -3.7152 -2.7109 2.7582 3.9984 0.6196 -2.8963 -3.2098 -1.3050 1.5131 3.2375 1.0004 1.8536 1.7837 1.2111 -1.7891 -3.9891 -0.6383 0.6642 0.9278 0.8544 -1.5087 -3.4110 0.7276 1.0133 -0.5273 1.0444 -0.2622 -2.6074 0.6923 -0.2292 -1.3343 1.0870
4.3618 6.1799 1.0974 -4.7974 -5.4111 -2.7136 3.0613 5.5346 1.5046 -3.6503 -5.1832 -1.7617 2.8310 4.2930 0.6805 -3.0847 -3.8016 -1.9724 1.7983 3.4281 1.3575 1.8993 2.0151 0.8426 -2.0814 -3.4976 -0.8884 0.9174 1.1422 1.5852 -1.6594 -2.0534 -0.9829 1.0338 -0.2858 1.1123 -0.5868 -1.7849 0.0038 -0.0429 -0.5753 0.1350
3.4685 6.4841 1.1645 -4.2909 -3.6024 -3.4809 2.9488 5.3826 0.2778 -3.9280 -3.9684 -2.0645 2.8954 4.0862 1.0482 -2.5422 -3.4680 -1.7565 2.0030 3.0993 0.3382 1.7233 1.9256 1.2444 -2.2537 -3.6562 -0.2890 0.6185 1.0813 0.6555 -0.7766 -3.4978 -0.0411 0.4571 -0.1806 1.4663 -0.5472 -2.3603 0.8819 0.2240 -1.3252 0.5551
4.4217 6.1408 1.2280 -4.6839 -5.5074 -2.0947 3.1268 5.4690 1.6129 -3.3638 -4.8510 -2.4130 2.9234 4.2502 0.7493 -3.1318 -3.6921 -1.4760 1.8285 3.3829 1.3180 1.8235 2.0609 0.5913 -1.6553 -3.3854 -1.4035 0.7054 1.1912 1.1080 -1.4406 -1.9597 -0.9544 0.6038 -0.0537 0.2605 -1.0255 -1.9403 0.4704 -0.1322 -1.1053 1.0032
4.0738 6.4978 1.9177 -4.7638 -5.8197 -2.3631 3.4680 5.5668 0.8976 -3.5690 -4.9177 -2.5499 3.0734 4.2728 1.5642 -3.3602 -4.1029 -1.2992 2.1585 3.4921 0.6543 1.9944 2.0893 1.1831 -2.0512 -3.3566 -1.3731 0.8892 1.3908 0.4310 -1.9421 -2.4491 -0.1728 0.9805 -0.0982 0.6571 -0.5838 -1.8631 -0.0833 -0.3676 -0.7023 0.5364
4.3991 5.5763 0.7181 -4.8515 -4.3301 -2.6242 2.9473 5.2416 0.4856 -3.3922 -3.9511 -2.6441 2.5345 4.1115 1.3951 -2.9002 -3.7596 -1.2316 1.3669 3.3763 0.7862 1.2228 2.0228 1.4353 -1.5181 -3.1573 -1.2578 0.2440 1.1865 0.6472 -1.1513 -2.6643 0.1199 0.0105 -0.1334 1.3421 0.2900 -2.3159 0.1481 0.7982 -1.2034 0.6802
3.1991 6.6684 0.9871 -4.8255 -4.8672 -3.0502 3.5474 5.2155 0.7844 -3.9632 -4.7865 -1.8158 2.3086 4.3694 0.9378 -2.8213 -3.8343 -2.0640 2.6996 2.9135 0.9754 1.5077 2.0771 1.3643 -2.2094 -3.4189 -0.7501 1.8740 0.6144 1.2972 -1.3097 -2.2315 -0.9792 0.6708 -0.2328 1.6326 -0.7015 -1.8014 0.3015 0.0233 -0.6858 0.3789
4.0826 6.2151 1.6225 -4.8906 -4.7189 -2.7610 3.1642 5.4294 0.7208 -3.7551 -4.8012 -1.7722 2.6264 4.2320 1.4633 -2.9319 -3.5393 -1.8397 2.0203 3.2610 0.4815 1.4130 2.0981 1.2250 -1.8821 -3.5638 -0.7573 1.0542 1.0073 0.2466 -1.1875 -2.2265 -0.6908 -0.0520 0.1512 0.8133 -0.0808 -2.2954 0.2945 0.4193 -1.2490 0.9536
4.0617 6.4478 0.9815 -3.5408 -5.3204 -3.3163 3.1131 5.5003 1.6718 -3.9869 -4.3340 -2.2666 3.2616 4.1202 1.0829 -3.0166 -4.3473 -1.1122 2.0353 3.3001 1.3946 1.9910 2.0974 0.4863 -2.8568 -2.9469 -0.5741 0.7286 1.3142 0.7444 -1.7081 -2.8997 0.4030 0.8115 -0.0187 0.0440 -0.6552 -1.9904 -0.1099 -0.2384 -0.9225 0.5707
4.1264 5.9891 1.5138 -3.8263 -5.0893 -3.0699 3.1641 5.3063 0.5748 -3.8716 -3.8205 -2.2558 2.3760 4.2620 1.3255 -2.7796 -3.8431 -1.2149 1.8499 3.2314 0.3578 1.0992 2.1610 1.1113 -2.4914 -2.4340 -0.7529 1.1434 0.8760 0.3237 -1.6444 -2.4465 0.4977 0.3759 -0.2067 1.0413 -0.2012 -2.4781 0.1512 0.6795 -1.5075 0.3966
4.6089 6.0328 1.5013 -4.5222 -5.6857 -2.6477 3.6470 4.9475 1.9144 -3.3557 -4.7321 -2.5881 2.7357 4.6117 0.7600 -3.2598 -4.1322 -1.2078 1.6643 3.6537 1.2183 1.9151 2.2890 0.6259 -1.8916 -3.5271 -1.0183 0.6013 1.5851 0.3978 -1.8969 -2.6175 0.1854 0.8260 0.0950 0.3333 -0.5901 -1.9243 0.2876 -0.4819 -0.5960 0.2381
3.3776 6.2044 2.1767 -4.3941 -5.0600 -2.9191 3.1304 5.3310 0.9730 -3.3651 -4.9231 -1.8249 2.8016 3.9289 1.4205 -2.9903 -3.4714 -1.6716 2.1549 3.1817 0.2816 2.0605 1.7170 0.6226 -2.1389 -3.2834 -0.4410 0.9135 1.0961 -0.1364 -1.6188 -1.8681 -0.4217 0.9834 -0.4081 -0.0332 -1.0312 -1.5522 0.9024 0.1163 -0.8927 1.0712
3.5133 6.3879 0.6843 -3.6605 -5.7280 -2.0378 2.9612 5.2857 1.5539 -3.1275 -4.4005 -2.5143 2.9594 3.9953 0.7754 -3.2682 -3.3711 -1.4213 2.0994 2.9646 1.4635 1.9442 1.7805 0.5430 -2.2013 -2.3156 -1.5872 1.2311 0.6527 1.2446 -2.1019 -1.4685 -0.3412 0.6330 -0.2626 0.2045 -1.0894 -2.0272 0.5908 0.1071 -1.4932 0.8419
3.4338 6.1837 0.6676 -3.8950 -3.1780 -3.7265 2.2766 5.2982 0.2789 -3.7725 -3.3537 -2.2338 2.6295 3.8568 0.5469 -2.3175 -3.3273 -1.8382 1.3721 3.0244 0.5742 1.7243 1.5686 0.3985 -2.2009 -3.0675 -0.3571 0.9158 0.7325 1.3586 -0.7457 -2.9581 0.0255 1.0523 -0.7265 1.0004 -0.6333 -2.5179 1.4377 0.1605 -1.5354 1.8672
2.0721 6.0759 1.2152 -4.1131 -3.8425 -3.5204 3.0462 5.1311 0.5565 -3.1135 -4.1204 -2.4260 2.3061 3.9436 -0.0072 -2.6963 -2.8212 -1.7847 2.5119 2.7491 0.8904 1.9465 1.5162 0.2337 -1.9857 -3.1015 -0.4844 1.3591 0.6123 1.2881 -1.7421 -1.8031 0.2441 1.0380 -0.7285 0.6775 -0.9285 -2.0476 1.4603 0.2993 -1.5633 1.6568
2.7102 6.0994 1.7845 -4.2892 -3.7392 -3.1894 2.3753 5.0666 0.7381 -2.9778 -4.0575 -2.5167 3.3536 3.9200 0.8217 -2.9618 -3.4752 -1.1251 2.8428 2.7450 0.0221 1.9404 1.9045 0.8906 -1.5622 -3.5584 -0.5671 1.4215 0.7113 0.1279 -1.5453 -3.1597 0.8906 0.0585 0.3568 0.6691 -1.0580 -1.7783 1.1352 -0.3081 -1.0354 0.3185
2.2373 6.2327 0.0005 -4.4151 -4.3668 -3.4045 2.9577 4.9811 0.4356 -3.9950 -4.0339 -1.9942 1.9652 3.8572 0.5931 -2.5954 -3.4750 -2.0135 2.6444 2.6710 1.2278 1.6073 1.7154 1.7617 -2.2463 -2.8879 -0.6684 2.1671 0.3141 1.7518 -1.2224 -1.7976 -0.8658 1.0659 -0.6855 2.0109 -0.7360 -1.3005 0.4419 0.5653 -1.2242 0.7230
3.2105 6.1954 0.3685 -4.4503 -5.7585 -2.2020 2.4153 5.2054 1.1816 -3.1404 -5.0164 -2.1172 3.2213 3.9457 1.3760 -3.3839 -3.6222 -1.5966 2.3476 2.8776 1.9838 2.7176 1.5316 1.4125 -2.0713 -2.8911 -1.4723 1.5594 0.5787 1.5737 -2.2111 -1.7589 -0.4844 1.0037 0.2261 0.2166 -1.0490 -0.8479 -0.6129 -0.1695 -0.6655 0.3726
2.0794 6.1483 0.8356 -3.8448 -2.8985 -3.4346 2.1664 4.7782 0.2120 -3.2484 -3.8384 -2.4170 3.1508 3.9315 0.9819 -2.8621 -3.0688 -1.1792 3.0801 2.4992 0.5104 1.9818 1.7718 1.2455 -1.5404 -3.5778 -0.6565 1.4953 0.5982 0.4312 -1.4306 -3.3529 0.8350 0.1427 0.1807 0.9519 -0.9530 -1.9986 1.2153 -0.2172 -1.1729 0.4685
3.2214 6.2862 0.8078 -4.7177 -3.5666 -2.4228 3.5068 4.8056 0.8489 -3.2760 -4.0065 -2.3822 2.3183 4.0506 0.3101 -2.4637 -2.9966 -1.6124 2.3029 2.6490 0.8674 0.9615 2.0185 0.5886 -1.1726 -3.6279 -1.1508 0.8027 0.7608 1.4051 -0.2435 -2.5666 -0.6140 -0.4243 0.0141 0.9420 -0.3685 -2.4810 0.8630 -0.4474 -1.3395 1.5492
2.4971 6.2886 -0.1156 -4.0613 -3.3662 -3.5682 2.9612 4.8585 -0.0011 -3.2361 -2.4871 -2.6631 1.8628 4.0172 0.5984 -2.8886 -3.2394 -1.4037 2.3590 2.6087 0.8088 1.2689 1.7787 1.4379 -1.5087 -2.8450 -0.9405 1.4275 0.3371 1.0249 -1.5083 -2.6602 0.5577 0.3070 -0.4838 1.6152 -0.1405 -2.8836 1.0904 0.6601 -1.9235 1.5590
1.8378 5.9489 -0.2872 -3.9498 -3.0487 -3.6980 1.7325 4.8485 0.7384 -2.8979 -3.4976 -2.7148 2.5423 3.6601 0.2853 -2.7230 -2.4460 -1.6483 2.2076 2.4645 1.1399 2.3679 1.2013 0.3293 -1.8071 -2.9634 -0.5673 2.1083 -0.0060 1.1968 -1.7268 -1.9534 0.5505 0.6229 -0.2521 1.2949 -0.6805 -2.3567 1.5229 0.3660 -1.5994 1.8576
2.9432 5.4161 -0.9282 -3.9561 -3.0399 -3.7431 3.0201 4.5830 0.3264 -3.7249 -3.1534 -2.2576 1.6247 4.3067 0.8310 -2.2464 -3.0959 -1.9685 1.6281 3.0976 1.7337 1.5098 1.8412 0.9062 -2.0301 -3.0182 -0.4784 0.8320 0.7609 1.7093 -0.5588 -2.8603 -0.1893 0.9880 -0.5620 1.0020 -0.3584 -2.6452 1.2647 0.3287 -1.6304 1.7918
2.1408 6.0033 -0.4082 -4.3353 -3.9937 -3.4895 2.6709 4.6068 -0.2009 -3.9881 -3.1045 -2.3225 1.7480 3.8370 0.7113 -2.5140 -3.2103 -2.0228 2.2105 2.4038 0.7962 1.4732 1.6841 1.8980 -2.1668 -2.2778 -0.8902 2.0974 0.3253 2.1090 -0.7116 -2.4320 -0.5248 1.0300 -0.6923 2.4301 -0.4281 -1.6019 0.6692 0.7731 -1.5477 1.2450
3.7828 4.8396 -0.5357 -3.9603 -3.2072 -3.4969 3.0087 4.5170 0.7179 -3.3135 -2.5086 -2.3274 1.5789 4.1953 0.3611 -2.2725 -3.4107 -1.7132 1.0087 3.2252 1.3654 0.5132 1.9908 0.6536 -1.9070 -2.9036 -0.3406 0.4718 0.8333 1.6196 -0.4054 -2.8626 -0.1981 0.9665 -0.4175 0.9364 -0.0402 -2.6839 1.2289 0.5683 -1.6070 1.7291
3.3885 5.5981 0.9366 -3.4428 -2.7564 -3.6351 2.0645 4.9989 0.5340 -2.9407 -2.1648 -2.3419 2.2931 3.6680 -0.1373 -2.2552 -3.2335 -1.5279 1.0443 2.8280 -0.0336 1.4144 1.3660 -0.0567 -2.1368 -2.7817 -0.0937 0.7517 0.6539 1.0960 -0.8021 -3.2125 0.4640 0.9918 -0.8311 0.9800 -0.5833 -2.5897 1.7930 0.2126 -1.5433 2.0227
1.4745 5.8602 0.1647 -4.1088 -2.4694 -3.5481 1.6347 4.4591 -0.3694 -2.8546 -2.9597 -2.8697 2.7199 3.7480 0.4014 -2.8902 -2.5893 -1.4084 2.5860 2.2563 0.2226 1.7163 1.6854 1.3159 -1.5522 -2.8901 -0.7815 1.8146 0.1813 1.3062 -1.4808 -2.2602 0.5867 0.5440 -0.4154 1.8589 -0.2481 -2.7107 1.2782 0.6446 -1.8957 1.8426
1.5785 5.8485 -0.5644 -3.5314 -2.8178 -3.9459 2.3212 4.7605 0.1688 -3.5150 -2.9241 -2.4418 1.5467 3.4684 0.0893 -2.2050 -2.3997 -1.9109 2.2549 2.4163 0.9052 1.5542 1.0894 0.7612 -2.2073 -2.4676 -0.4041 1.9822 0.1747 1.8841 -0.7932 -2.3468 0.1040 1.5661 -1.2456 1.5894 -0.8018 -2.0208 1.5513 0.2498 -1.5353 2.2139
2.6585 5.6274 -1.0111 -3.6831 -1.4483 -3.0222 1.9397 5.0224 0.1685 -3.0469 -2.7332 -2.5540 2.4371 3.6174 0.3979 -1.8859 -2.4166 -1.6464 1.3888 2.8246 1.1371 1.7341 1.3576 1.0872 -1.5392 -3.6276 -0.8141 0.5147 0.5396 1.4325 -0.3432 -3.3277 0.0574 0.8728 -0.9257 1.4314 -0.7892 -2.7883 1.3675 -0.2583 -1.7218 1.9681
1.2575 5.4545 1.4275 -3.5776 -4.8916 -2.5031 2.3731 4.4415 1.3723 -2.3931 -4.0328 -2.1368 2.0164 3.3475 0.3981 -2.8689 -2.6634 -1.7216 3.0915 2.2892 0.4146 2.5762 1.0280 -0.2319 -2.3157 -2.3299 -0.3588 2.2394 0.0119 0.8323 -1.9159 -0.8752 -0.3125 1.0123 -0.7638 0.4228 -1.3939 -0.5370 1.0354 -0.1013 -0.4789 1.3618
3.0736 5.3042 -0.6235 -4.4295 -3.4416 -2.5825 2.9815 4.1876 0.3857 -3.5196 -2.6846 -1.6488 1.5572 3.6989 0.4775 -2.0997 -2.7659 -2.1504 1.5548 2.2287 0.8130 0.2725 1.8576 1.5160 -1.1668 -2.9697 -0.9842 0.5129 0.6491 2.3882 -0.1716 -1.8374 -0.9182 -0.1922 -0.5557 1.8144 0.8178 -2.1177 0.1518 0.8090 -1.5536 1.3610
2.3233 5.4283 -1.0505 -4.2249 -2.4614 -3.2233 2.3984 4.6631 0.2469 -3.4073 -3.0765 -2.1153 1.9350 3.2455 0.0243 -2.2089 -2.2054 -1.8371 1.5758 2.6129 1.3455 0.8462 1.3176 1.0966 -1.3303 -2.8527 -0.7961 0.8784 0.4619 2.3396 -0.1120 -1.9906 -0.5719 -0.0536 -0.7142 2.1721 0.6716 -2.4986 0.5811 0.7084 -1.9298 1.7881
1.5307 4.9260 -1.1404 -4.4905 -2.7754 -2.5128 2.4466 4.3495 -0.0909 -2.9988 -2.7105 -2.7233 2.0788 2.9118 0.1720 -2.2946 -2.8313 -1.3965 2.3828 2.5729 1.6111 1.9282 1.1703 1.9285 -0.8862 -2.3020 -1.5190 0.4220 1.1154 2.0442 -0.0011 -2.9662 -0.4897 -0.0218 -0.2992 2.3256 0.2476 -2.1551 0.7295 -0.3436 -1.0063 1.0617
0.5069 5.1319 -0.4376 -3.1668 -2.4009 -3.9857 1.8279 4.5908 0.0493 -3.4028 -2.3786 -2.4963 1.8912 3.1056 -0.2025 -2.1262 -2.7332 -1.7768 2.7921 2.4543 0.8181 2.6541 0.9542 0.7352 -2.2166 -2.2938 -0.3366 1.6602 0.4787 1.7658 -0.9130 -2.5951 0.3587 1.3334 -0.9745 1.5307 -0.9212 -2.0246 1.7278 0.0807 -1.3147 2.2498
2.6224 5.5398 -0.9117 -3.7186 -1.5080 -2.8657 2.2462 4.7568 0.3215 -2.2882 -1.9271 -2.6359 1.5679 3.4754 -0.0908 -2.1225 -2.3690 -1.2045 1.6836 2.4483 1.0076 1.2537 1.1067 0.4688 -0.6581 -2.5467 -0.8888 0.9792 0.1526 1.6040 -0.4837 -3.5883 0.1903 -0.3051 -0.5892 1.3273 -0.4329 -3.0923 1.5889 -0.3440 -1.8590 2.0890
1.9358 5.3153 -1.3348 -3.2580 -1.5083 -3.7883 1.1511 4.1760 -0.7342 -3.2756 -1.8564 -2.3211 2.0346 3.3917 0.2033 -1.8903 -2.2553 -1.8783 1.1869 2.4878 1.0628 1.9672 1.2464 1.4157 -1.8638 -2.4070 -0.3780 1.0685 0.2707 2.1333 -0.4809 -2.8141 0.0672 1.4201 -1.1386 1.7238 -0.4164 -2.8239 1.5494 0.4207 -2.0844 2.2793
0.8606 5.1554 -1.0442 -3.8146 -1.5822 -3.4724 1.0769 3.6875 -0.7758 -2.5497 -2.1718 -2.9010 2.1318 3.5165 0.2895 -2.3894 -1.7322 -1.4674 2.4269 2.0501 0.4868 1.5853 1.5063 1.6152 -1.2868 -2.5272 -0.8142 1.8991 0.0464 1.8236 -1.3157 -2.3013 0.6772 0.6603 -0.6774 2.2899 -0.0780 -2.8432 1.2899 0.7933 -2.1269 2.0028
1.6442 5.0502 -1.3507 -2.0824 -1.5995 -3.6811 1.2395 4.2924 -0.1116 -2.6005 -1.3837 -2.2813 2.4396 3.5772 0.4607 -2.0271 -2.4344 -1.3650 1.9925 2.4757 1.3911 1.5889 1.2630 0.5890 -2.1744 -1.9947 0.0710 1.1456 0.1561 1.5108 -1.8105 -3.1327 0.9935 0.5555 -0.9646 0.6916 -0.4539 -3.0918 1.5939 0.5430 -2.2131 1.4881
1.4268 5.2563 -1.3021 -2.9281 -1.9714 -3.9073 1.3921 4.4725 -0.0140 -3.0334 -1.6153 -2.4457 1.4017 2.9950 -0.3179 -1.7192 -1.8900 -1.7587 1.6943 2.2206 0.9429 1.5583 0.7421 0.6777 -1.9114 -1.8406 -0.2630 1.8881 -0.0274 1.9341 -0.8568 -2.6842 0.4097 1.5652 -1.4898 1.7459 -0.7764 -2.3450 1.8522 0.2987 -1.8230 2.4461
1.4312 5.7560 -0.3791 -2.2608 -0.9419 -3.5244 1.7551 4.3389 -0.7812 -2.8015 -1.8156 -2.4209 1.2491 3.3863 0.2726 -1.8860 -1.7399 -1.2255 1.9177 2.0443 0.1072 1.6317 1.1865 1.3140 -2.2699 -2.7991 -0.2204 1.5801 -0.2665 0.9111 -1.6607 -2.4830 1.1245 0.8532 -1.0524 1.9746 -0.3272 -3.1260 1.2434 0.7880 -2.4876 1.6041
1.6353 4.9619 -1.7036 -3.2514 -0.5937 -2.8914 1.4557 4.5560 -0.2621 -2.5425 -1.9090 -2.6879 2.0457 3.1858 -0.0395 -1.6497 -1.8193 -1.4765 1.4258 2.5581 1.1849 1.8055 1.0998 1.2513 -1.4444 -3.1994 -0.8999 0.7260 0.3186 1.9589 -0.2864 -3.1961 0.0679 1.0178 -1.1569 1.8423 -0.7566 -2.8597 1.4357 -0.1808 -1.9461 2.2197
1.0086 4.8429 -1.6740 -2.3520 -0.3579 -3.2755 1.4209 4.1844 -0.3816 -2.2613 -0.5337 -1.7800 1.2802 2.6880 -0.5066 -2.0251 -1.9871 -1.4490 1.3719 2.0589 0.8608 1.2495 0.5614 0.7390 -0.6567 -2.1416 -0.8309 1.4860 -0.0779 2.0864 -0.6712 -3.1836 0.2634 1.2661 -1.5695 2.0001 -0.9806 -2.5865 1.5882 -0.1363 -1.8977 2.3596
0.8385 3.5089 -2.2384 -3.3318 -0.9797 -3.3799 0.9840 3.7706 -0.7604 -2.7512 -0.8592 -1.9931 1.7749 2.6556 -0.1245 -1.7464 -1.9613 -1.7706 1.2320 2.3704 1.2535 1.7972 1.0641 1.7512 -0.9813 -1.7073 -0.4959 0.8576 0.4331 2.7511 -0.1271 -2.9095 -0.1764 0.0156 -0.6336 2.0913 0.6820 -2.8356 1.0646 0.7560 -1.9166 2.0274
2.9874 4.5804 -0.5181 -1.6803 0.2825 -2.5062 1.5958 4.0671 -0.7913 -2.3268 -0.6910 -1.5539 1.1635 3.1549 0.3289 -1.3996 -1.8540 -1.3025 0.1706 2.1447 -0.1913 -0.2296 1.1960 0.9128 -1.7362 -2.4768 0.0305 0.7339 0.0359 0.9615 -0.8569 -3.6727 0.3078 0.1864 -1.0607 1.8417 0.4687 -3.3887 0.9138 0.9229 -2.3176 1.5663
0.6852 4.8287 -1.4949 -1.9262 0.9845 -1.9314 0.8781 3.3401 -1.3515 -1.0707 -0.2594 -1.9031 1.1714 3.0074 0.0894 -1.9445 -1.4577 -1.6026 1.6853 1.5944 0.1887 1.1941 0.9639 1.4678 -1.1108 -2.5437 -0.9659 1.4469 -0.5217 1.4384 -1.4991 -2.6979 0.4866 0.4242 -1.2234 2.3008 -0.3935 -3.3338 1.2419 0.4597 -2.6814 2.0358

>  <OB_ATOM_TYPES> (1icnA1)
C.3 C.3 C.3 C.3 C.3 C.3 C.3 C.3 C.3 C.3 C.3 C.3 C.2 C.2

>  <ENSEMBLE_RMSD> (1icnA1)
0.703 0.733 0.762 0.777 0.797 0.831 0.841 0.843 0.853 0.875 0.883 0.898 0.903 0.915 0.924 0.950 0.951 0.954 1.001 1.005 1.016 1.084 1.104 1.156 1.164 1.186 1.280 1.290 1.311 1.406 1.408 1.457 1.573 1.576 1.623 1.664 1.675 1.764 1.841 1.870 1.991 2.066 2.087 2.120 2.136 2.146 2.601 2.661 2.695 3.026

$$$$
