
 OpenBabel03071213D

 16 16  0  0  0  0  0  0  0  0999 V2000
    4.4390   49.5310   15.6830 O   0  0  0  0  0
    5.9780   51.7320   16.6350 O   0  0  0  0  0
    4.3020   49.1680   12.8990 O   0  0  0  0  0
    5.9070   54.0840   15.0880 O   0  0  0  0  0
    6.4270   50.9850   12.2420 O   0  0  0  0  0
    3.9410   54.9830   11.1610 O   0  0  0  0  0
    6.2430   55.3780   10.3400 O   0  0  0  0  0
    5.1650   53.2710    9.8540 O   0  0  0  0  0
    5.8910   53.7990   12.2140 O   0  0  0  0  0
    5.1130   50.4220   14.8000 C   0  0  0  0  0
    5.2050   51.8040   15.4280 C   0  0  0  0  0
    4.3680   50.4830   13.4640 C   0  0  0  0  0
    5.8670   52.8100   14.4680 C   0  0  0  0  0
    5.0910   51.4540   12.4840 C   0  0  0  0  0
    5.1470   52.8980   13.0920 C   0  0  0  0  0
    5.2330   54.3830   10.9070 P   0  0  0  0  0
  1 10  1  0  0  0
  2 11  1  0  0  0
  3 12  1  0  0  0
  4 13  1  0  0  0
  5 14  1  0  0  0
  6 16  1  0  0  0
  7 16  1  0  0  0
  8 16  2  0  0  0
  9 15  1  0  0  0
  9 16  1  0  0  0
 10 11  1  0  0  0
 10 12  1  0  0  0
 11 13  1  0  0  0
 12 14  1  0  0  0
 13 15  1  0  0  0
 14 15  1  0  0  0
M  END
>  <MOLID> (1imbA1)
1imbA1

>  <SMILES_CANONICAL> (1imbA1)
O[C@@H]1[C@H](OP(=O)(O)O)[C@@H](O)[C@@H]([C@H]([C@@H]1O)O)O	

>  <FINGERPRINT> (1imbA1)
0000000000000000000000000000000000000001000000000000000000000000000000000000000000000101000000000000000000000000000010100000000000000000001010000000000000000100000000000000000000000000000000000000000000000000010000000000000000000000000000000000000000000000000000000000000000000000000000000000000000000000000000000000000000000000000000000000000000000000010000000000000000000000000000000000000000000000000000000000000000000010100000100000000000100000000000000000000000000000000000000000000000001000000010100000100000000000000010100000000000100000000000000000000000000000000000000000001101000000001000000000000000000000000000000101000000000011000000000000000000000000000000000000010000000000000010000000000000000101000000000000000000000000000000000000000000000000000100000000000000000000000000000000000000000000000000000000000000000000000000100000000000000000000000000000000000000001000000000000000000000000000000000000000000000000000000000000000000000000000101000000000101000000000000000000000000000000000000001000000000000000

>  <MACCS166> (1imbA1)
000000000000000000000000000010000000000000100001000011000000000000000001000000000000000010000000000001000100000100000000000101100110000100110010010101010000101000111000

>  <OB_MW> (1imbA1)
260.03

>  <OB_logP> (1imbA1)
-3.7176

>  <OB_PSA> (1imbA1)
177.72

>  <OB_MR> (1imbA1)
46.7231

>  <OB_ATOMIC_CHARGES> (1imbA1)
-0.2174872035 -0.2174886828 -0.2174886828 -0.2175919481 -0.2175919481 -0.1145334177 -0.1145334177 -0.2223849955 -0.26731961 0.2174842283 0.2173850471 0.2173850471 0.2148169121 0.2148169121 0.1918572768 0.5326744827

>  <MCT_HBD> (1imbA1)
7

>  <MCT_HBA> (1imbA1)
9

>  <ENSEMBLE_TOTAL> (1imbA1)
20

>  <ENSEMBLE_COORDS> (1imbA1)
-0.8308 -2.7931 2.5106 0.7082 -0.5921 3.4626 -0.9678 -3.1561 -0.2734 0.6372 1.7599 1.9156 1.1572 -1.3391 -0.9304 -1.3288 2.6589 -2.0114 0.9732 3.0539 -2.8324 -0.1048 0.9469 -3.3184 0.6212 1.4749 -0.9584 -0.1568 -1.9021 1.6276 -0.0648 -0.5201 2.2556 -0.9018 -1.8411 0.2916 0.5972 0.4859 1.2956 -0.1788 -0.8701 -0.6884 -0.1228 0.5739 -0.0804 -0.0368 2.0589 -2.2654
-0.7744 -2.6862 2.5367 0.2177 -0.3243 3.5475 -0.9567 -3.0437 -0.1842 0.9774 1.6957 1.8430 -0.1115 -1.1103 -1.8887 -1.4786 1.8087 -1.9731 0.5367 3.3965 -2.4547 0.4901 1.0911 -3.3216 0.8880 1.3409 -0.8723 -0.3846 -1.6899 1.6920 0.1063 -0.4933 2.1986 -0.4716 -1.8723 0.3194 0.4947 0.5263 1.3295 -0.0577 -0.8668 -0.5495 0.4123 0.3509 -0.0544 0.1118 1.8767 -2.1683
-0.8836 -2.5942 2.5380 -0.3363 -0.0199 3.3495 -0.4680 -3.3294 -0.0836 0.6148 1.8227 1.5399 0.4910 -1.4933 -1.8939 -0.9480 2.8471 -1.0186 0.8867 3.0061 -2.8660 -0.7701 1.1627 -2.8425 1.0229 1.0958 -1.0926 -0.4170 -1.6807 1.6395 -0.1428 -0.3801 2.0485 -0.2088 -2.0514 0.3155 0.3340 0.5517 1.1321 0.2703 -1.1206 -0.6004 0.5307 0.1875 -0.1980 0.0243 1.9960 -1.9673
-0.7684 -2.4436 2.7510 -0.1420 0.1912 3.2508 -0.6007 -3.4368 0.1873 0.6960 1.8202 1.2036 0.1893 -1.7956 -1.8776 -1.2856 2.3172 -1.1569 1.0134 3.3797 -1.7996 -0.1989 1.8714 -3.3452 0.8948 0.8107 -1.3802 -0.3861 -1.6278 1.7274 -0.0644 -0.2992 1.9805 -0.3049 -2.1278 0.4322 0.3507 0.5268 0.9410 0.0947 -1.2969 -0.6107 0.4216 0.0347 -0.3612 0.0904 2.0759 -1.9424
-0.9337 -2.3918 2.6874 -0.0392 0.1387 3.3065 -0.8264 -3.2935 0.0868 0.9516 1.7724 1.3250 0.1540 -1.6558 -1.8993 -1.4606 1.7916 -1.5255 0.5628 3.4479 -1.5383 0.1609 1.8669 -3.4051 1.0232 0.8850 -1.2908 -0.4410 -1.5839 1.7055 0.0099 -0.3058 2.0183 -0.3895 -2.0382 0.3919 0.5079 0.5201 1.0167 0.1050 -1.2109 -0.6109 0.5454 0.0734 -0.3020 0.0694 1.9837 -1.9662
-0.6738 -2.4057 2.8176 0.0098 0.2285 3.2257 -0.6986 -3.4432 0.2655 0.7477 1.8031 1.1171 -0.0051 -1.8543 -1.8738 -1.4202 2.1611 -1.4977 0.9109 3.3434 -1.3120 0.1963 2.1920 -3.3803 0.8127 0.7318 -1.4705 -0.3525 -1.6142 1.7551 0.0009 -0.2862 1.9624 -0.3622 -2.1368 0.4669 0.3658 0.5154 0.8857 -0.0108 -1.3309 -0.6133 0.3597 -0.0012 -0.4095 0.1194 2.0970 -1.9389
-0.7675 -2.7554 2.4128 -0.4404 -0.2048 3.3977 -0.2280 -3.2905 -0.2342 0.3998 1.8198 1.7299 0.6374 -1.2757 -1.8980 -0.1467 3.5642 -1.6294 0.5475 1.8244 -3.4439 -1.3749 1.4265 -1.9217 0.9406 1.2932 -0.9177 -0.3492 -1.7545 1.5869 -0.1884 -0.4649 2.0829 -0.0767 -2.0247 0.2503 0.2360 0.5574 1.2404 0.3562 -1.0055 -0.5908 0.5019 0.2907 -0.1002 -0.0476 1.9998 -1.9650
-0.1735 -2.9448 2.4337 0.0155 -0.4464 3.5891 -0.1918 -3.1874 -0.3027 0.1469 1.7869 2.0148 -0.0062 -0.9937 -1.8950 0.1892 3.5453 -2.3794 1.1132 1.2320 -3.1050 -1.3088 1.5824 -2.5882 0.2826 1.6250 -0.6446 -0.1012 -1.8306 1.6506 -0.0137 -0.5754 2.2317 -0.1075 -1.9484 0.2665 0.0637 0.5557 1.4251 -0.0134 -0.8145 -0.5447 0.0790 0.4537 0.0278 0.0259 1.9603 -2.1798
-0.7125 -2.8108 2.3577 -0.3667 -0.3125 3.4625 -0.2321 -3.2116 -0.3231 0.4056 1.7997 1.8727 0.6076 -1.1340 -1.8961 0.0255 3.5610 -2.0827 0.4336 1.3565 -3.4011 -1.4621 1.5971 -1.8065 0.8521 1.4240 -0.8151 -0.3131 -1.7690 1.5758 -0.1458 -0.5056 2.1302 -0.0674 -1.9725 0.2235 0.2427 0.5614 1.3244 0.3401 -0.9124 -0.5774 0.4696 0.3651 -0.0367 -0.0771 1.9634 -2.0080
-0.1487 -2.4669 2.9011 0.1612 0.2519 3.1619 -0.3859 -3.5848 0.3948 0.2192 1.8603 0.9822 -0.3191 -1.9925 -1.8343 -0.9767 3.0881 -1.2635 1.6213 2.6687 -1.3505 0.1826 2.4494 -3.3467 -0.0561 0.6575 -1.6693 -0.1153 -1.6749 1.7922 0.0390 -0.3004 1.9188 -0.2353 -2.2365 0.5308 0.0701 0.5202 0.7873 -0.2012 -1.4203 -0.5975 -0.0495 -0.0312 -0.4884 0.1944 2.2115 -1.9190
-0.7364 -2.6301 2.5994 -0.5843 0.0498 3.2057 -0.1344 -3.5017 0.0562 0.2292 1.8474 1.3127 0.6667 -1.6998 -1.8653 0.2887 3.4997 -1.0198 0.4733 2.4134 -3.3738 -1.3749 1.8289 -1.8225 0.9224 0.9657 -1.2469 -0.3634 -1.7356 1.6404 -0.2791 -0.3839 1.9491 -0.0556 -2.1738 0.3577 0.1281 0.5289 0.9814 0.3454 -1.2597 -0.6140 0.4401 0.0972 -0.3069 0.0345 2.1536 -1.8535
-0.9189 -2.3685 2.7182 0.2127 0.0628 3.3463 -1.0628 -3.1826 0.0908 1.1926 1.6836 1.3507 -0.0807 -1.5664 -1.9080 -1.1865 1.2628 -2.6698 -0.4190 3.0572 -0.9252 0.8378 2.6499 -3.0227 1.0283 0.8847 -1.2887 -0.4385 -1.5637 1.7277 0.1313 -0.3354 2.0445 -0.5122 -1.9742 0.4011 0.6213 0.4860 1.0344 -0.0214 -1.1535 -0.6093 0.5337 0.0855 -0.2970 0.0821 1.9716 -1.9929
0.4447 -2.7828 2.4505 0.8743 -0.1797 3.2403 -0.6190 -3.3101 -0.0348 0.2483 1.8961 1.5454 -1.2467 -1.2379 -1.7328 -0.3879 3.1431 -2.8297 1.5700 2.4919 -1.2346 0.6721 0.9046 -2.9285 -0.8016 1.3740 -0.9555 0.1406 -1.7553 1.6070 0.3593 -0.4409 2.0048 -0.3948 -2.0216 0.3515 0.0474 0.6076 1.1452 -0.7068 -0.9736 -0.5084 -0.4746 0.3439 -0.1190 0.2746 1.9407 -2.0011
-0.9228 -2.5199 2.5849 0.1999 -0.1653 3.4692 -1.0002 -3.0796 -0.1095 1.1665 1.6676 1.6556 -0.0455 -1.2640 -1.9215 0.0131 1.1649 -3.4624 -1.4392 2.0325 -1.4643 0.5584 3.2642 -2.2735 1.0268 1.1536 -1.0445 -0.4248 -1.6214 1.6885 0.1302 -0.4266 2.1322 -0.4756 -1.8993 0.3277 0.6146 0.5008 1.2138 0.0097 -0.9746 -0.5901 0.5404 0.2382 -0.1535 0.0487 1.9289 -2.0526
-0.8166 -2.6781 2.4660 -0.3441 -0.1127 3.3501 -0.3646 -3.3308 -0.1715 0.5664 1.8031 1.5970 0.5492 -1.4192 -1.9269 0.7777 3.1180 -2.7736 -0.9320 1.1506 -2.8564 -0.9124 2.7958 -0.9890 0.9920 1.1647 -1.0546 -0.3684 -1.7286 1.5957 -0.1319 -0.4329 2.0416 -0.1422 -2.0575 0.2637 0.3231 0.5362 1.1535 0.3137 -1.0888 -0.6247 0.5336 0.2147 -0.1855 -0.0434 2.0655 -1.8853
-0.3537 -2.5752 2.7985 -0.3956 0.1487 3.1653 -0.0546 -3.6136 0.2647 -0.1304 1.8372 1.0640 0.2579 -1.9377 -1.8804 1.2950 3.0735 -0.9577 0.4608 2.6029 -3.3691 -1.1318 2.7547 -1.4822 0.3202 0.7149 -1.5972 -0.2246 -1.7417 1.7280 -0.2431 -0.3650 1.9090 -0.0686 -2.2635 0.4537 -0.0954 0.4974 0.8194 0.0858 -1.4057 -0.6320 0.0835 -0.0143 -0.4658 0.1947 2.2874 -1.8181
-0.8407 -2.5734 2.5870 0.1458 -0.1516 3.4518 -0.9024 -3.1528 -0.1044 1.0318 1.7076 1.6238 0.0162 -1.3138 -1.9316 0.3040 1.5461 -3.5423 -1.5031 1.7587 -1.6640 0.3639 3.3828 -1.8812 1.0060 1.1261 -1.0630 -0.4001 -1.6537 1.6815 0.0908 -0.4278 2.1174 -0.4319 -1.9461 0.3225 0.5407 0.5101 1.1931 0.0283 -1.0132 -0.6011 0.5062 0.2224 -0.1695 0.0445 1.9786 -2.0201
-0.3007 -2.4951 2.8676 0.5260 0.1112 3.1445 -0.8529 -3.4993 0.3635 0.8056 1.7157 0.9768 -0.6996 -1.8703 -1.8367 -0.1263 2.5934 -3.3802 -0.7507 3.0628 -0.8997 1.6081 2.6573 -1.6230 0.1130 0.6695 -1.6508 -0.2021 -1.6912 1.7709 0.2112 -0.3729 1.9073 -0.4971 -2.1916 0.5118 0.3303 0.4522 0.7871 -0.4075 -1.3611 -0.6018 0.0008 -0.0264 -0.4805 0.2419 2.2458 -1.8568
-0.1797 -2.5396 2.8447 0.5983 0.0802 3.1312 -0.8968 -3.4939 0.3623 0.6852 1.7458 0.9977 -0.8238 -1.8384 -1.8207 0.1282 2.5826 -3.4156 -0.7321 3.1765 -1.0349 1.6485 2.5377 -1.4707 -0.0469 0.7042 -1.6359 -0.1495 -1.7155 1.7596 0.2446 -0.3912 1.8995 -0.5091 -2.1953 0.5103 0.2860 0.4595 0.7920 -0.4689 -1.3485 -0.5939 -0.0689 -0.0112 -0.4719 0.2850 2.2472 -1.8538
-0.5994 -2.4856 2.7880 0.1881 0.1151 3.2183 -0.7704 -3.4605 0.2183 0.8570 1.7171 1.1235 -0.2203 -1.8207 -1.9197 0.2681 2.4871 -3.4103 -1.3890 2.3846 -1.3957 0.9554 3.1898 -1.1512 0.6830 0.7355 -1.5171 -0.3219 -1.6737 1.7284 0.0794 -0.3633 1.9454 -0.4197 -2.1591 0.4302 0.3983 0.4597 0.8678 -0.1316 -1.3271 -0.6499 0.2810 -0.0083 -0.4406 0.1419 2.2096 -1.8356

>  <OB_ATOM_TYPES> (1imbA1)
O.3 O.3 O.3 O.3 O.3 O.3 O.3 O.2 O.3 C.3 C.3 C.3 C.3 C.3 C.3 P.3

>  <ENSEMBLE_RMSD> (1imbA1)
0.000 0.586 0.676 0.794 0.802 0.883 0.921 0.955 0.988 1.042 1.055 1.067 1.069 1.287 1.307 1.315 1.327 1.354 1.378 1.402

$$$$
