
 OpenBabel03071213D

 15 15  0  0  0  0  0  0  0  0999 V2000
   45.1360   18.1940  -24.1730 C   0  0  0  0  0
   45.6050   20.5600  -22.1930 N   0  0  0  0  0
   50.6240   22.5360  -20.0020 O   0  0  0  0  0
   49.7960   20.4650  -24.6910 O   0  0  0  0  0
   47.3750   17.6680  -23.5990 O   0  0  0  0  0
   48.9740   23.9900  -20.1850 O   0  0  0  0  0
   47.0780   19.7080  -24.4980 N   0  0  0  0  0
   47.5760   21.6720  -21.3290 C   0  0  0  0  0
   49.6300   21.6470  -22.5760 C   0  0  0  0  0
   46.6160   18.5270  -24.0590 C   0  0  0  0  0
   49.5200   22.8930  -20.4860 C   0  0  0  0  0
   46.9480   20.8810  -22.3200 C   0  0  0  0  0
   49.0390   20.8530  -23.5860 C   0  0  0  0  0
   48.9080   22.0650  -21.4490 C   0  0  0  0  0
   47.6840   20.4600  -23.4710 C   0  0  0  0  0
  1 10  1  0  0  0
  2 12  1  0  0  0
  3 11  1  0  0  0
  4 13  1  0  0  0
  5 10  2  0  0  0
  6 11  2  0  0  0
  7 10  1  0  0  0
  7 15  1  0  0  0
  8 12  2  0  0  0
  8 14  1  0  0  0
  9 13  1  0  0  0
  9 14  2  0  0  0
 11 14  1  0  0  0
 12 15  1  0  0  0
 13 15  2  0  0  0
M  END
>  <MOLID> (1ivcA1)
1ivcA1

>  <SMILES_CANONICAL> (1ivcA1)
CC(=O)Nc1c(N)cc(cc1O)C(=O)O	

>  <FINGERPRINT> (1ivcA1)
0000000000000000010000000000001011001000000000000000100000001000001000000000000000000001000000001000000000001001000001100000000000000000000000000000000000000000000000000000000001000000000000000000001000000000000000000000000000000000000000000000000000000000000000000000000000000001000000000000000000000000000010000100000000000000001010000000000000000100010000000000000010000000000000000000000000000000100000000000001000000000000100001000000000000000000000000000010000000000010000000011000000001000010000000000100000000000000001000000000000000000000000100000000001000000000000000000100000000000000000000000000010000000000000100000011000000000010000000001000000000000000000000000100000000010000011100010000000100000000000000010000000000000000000000100000010000000000001000000000000000100000000000000000010000000000000000000000000000000001000000000000000000000011000000000000000000000000000001000000000000000010000001000000000000000000000000000011000000000000000011100000000000000000100000000000000000000000000000000001000000000

>  <MACCS166> (1ivcA1)
000000000000000000000000000000000000000000001000010011000000000000000000000100100001000000010010101000000000010010001000001000100010101100111111010011110101111110111000

>  <OB_MW> (1ivcA1)
210.064

>  <OB_logP> (1ivcA1)
1.2852

>  <OB_PSA> (1ivcA1)
112.65

>  <OB_MR> (1ivcA1)
54.1414

>  <OB_ATOMIC_CHARGES> (1ivcA1)
0.0967991256 -0.1265842413 -0.2405501187 -0.2851277586 -0.2729697908 -0.2405501187 -0.1745742098 0.0261679255 0.0500587225 0.2461933627 0.3878984042 0.1076906182 0.212389792 0.0843764621 0.128781825

>  <MCT_HBD> (1ivcA1)
4

>  <MCT_HBA> (1ivcA1)
6

>  <ENSEMBLE_TOTAL> (1ivcA1)
2

>  <ENSEMBLE_COORDS> (1ivcA1)
-2.8979 -2.6139 -1.5985 -2.4289 -0.2479 0.3815 2.5901 1.7281 2.5725 1.7621 -0.3429 -2.1165 -0.6589 -3.1399 -1.0245 0.9401 3.1821 2.3895 -0.9559 -1.0999 -1.9235 -0.4579 0.8641 1.2455 1.5961 0.8391 -0.0015 -1.4179 -2.2809 -1.4845 1.4861 2.0851 2.0885 -1.0859 0.0731 0.2545 1.0051 0.0451 -1.0115 0.8741 1.2571 1.1255 -0.3499 -0.3479 -0.8965
-0.6776 -3.4146 -0.9038 -2.7488 0.7906 0.2025 1.7685 3.3319 1.5835 1.4111 -1.2118 -1.3713 -1.2116 -2.6233 -3.0950 2.2317 1.6096 3.0164 -1.4961 -1.1909 -1.3064 -0.6312 1.4207 1.1095 1.4378 0.4294 0.3222 -1.1396 -2.3858 -1.8928 1.6628 2.0628 2.0368 -1.3770 0.6451 0.2915 0.6565 -0.3933 -0.5727 0.8091 1.2911 1.1334 -0.6955 -0.3615 -0.5537

>  <OB_ATOM_TYPES> (1ivcA1)
C.3 N.pl3 O.co2 O.3 O.2 O.co2 N.am C.ar C.ar C.2 C.2 C.ar C.ar C.ar C.ar

>  <ENSEMBLE_RMSD> (1ivcA1)
0.000 1.294

$$$$
