
 OpenBabel03071213D

 10  9  0  0  0  0  0  0  0  0999 V2000
   -4.0270   57.5570   43.5480 C   0  0  0  0  0
   -4.3960   59.6900   42.2990 C   0  0  0  0  0
   -2.6470   59.2930   46.3660 N   0  0  0  0  0
    0.2770   59.3250   46.9120 O   0  0  0  0  0
   -0.3540   61.3360   45.5000 O   0  0  0  0  0
    0.7680   59.3490   44.3880 O   0  0  0  0  0
   -2.4330   59.5420   43.9460 C   0  0  0  0  0
   -3.8830   59.0740   43.6130 C   0  0  0  0  0
   -1.7910   58.9830   45.2250 C   0  0  0  0  0
   -0.1880   59.7830   45.5110 P   0  0  0  0  0
  1  8  1  0  0  0
  2  8  1  0  0  0
  3  9  1  0  0  0
  4 10  1  0  0  0
  5 10  1  0  0  0
  6 10  2  0  0  0
  7  8  1  0  0  0
  7  9  1  0  0  0
  9 10  1  0  0  0
M  END
>  <MOLID> (1lcpA1)
1lcpA1

>  <SMILES_CANONICAL> (1lcpA1)
N[C@H](P(=O)(O)O)CC(C)C	

>  <FINGERPRINT> (1lcpA1)
0000000000000000000000000000000000000000000000000000011000000000000000000000000000000000000000000000000000000000000001000000000000000000000000000000000000000000000000000000000000000000000000000000000000000000000000000000000000000000000000000000000000000000000000000000000000000000000000000000000000000000000000001000000000000000000000000000000000000000010000000000000000000000000000000000000000000000000000000000000000000000000000100000000000000000000000100000000000000000000000000000000000000000000000000000000000000000000000000000000000101000000000000001000000000000000000000000000000000000000000000000000000000000000000000000000000000001000000000000000000000000000000000001010100110000000000000000000000000000010000000000000000000000000000000000000000000000000100000000000000000000000000000000000000000000000000000000000000000000000000000000000000000000000000000000000000000001010000000000000000000000000001000000000000000000000000000000010000000000000000000001000000000000000000000000000000000000000000001000000000000011

>  <MACCS166> (1lcpA1)
000000000000000000000000000010000000000000100001000001000000000000000000010000000001000001000010000001010100001100100000000100000110000100111100010110100011011110010000

>  <OB_MW> (1lcpA1)
167.071

>  <OB_logP> (1lcpA1)
1.1953

>  <OB_PSA> (1lcpA1)
93.36

>  <OB_MR> (1lcpA1)
39.8435

>  <OB_ATOMIC_CHARGES> (1lcpA1)
6.05041e-05 6.05041e-05 -0.1250616434 -0.3561872091 -0.3561872091 -0.4586779092 0.026461839 0.0018976204 0.1432055218 0.1344279815

>  <MCT_HBD> (1lcpA1)
3

>  <MCT_HBA> (1lcpA1)
4

>  <ENSEMBLE_TOTAL> (1lcpA1)
25

>  <ENSEMBLE_COORDS> (1lcpA1)
-2.1596 -1.8362 -1.1828 -2.5286 0.2968 -2.4318 -0.7796 -0.1002 1.6352 2.1444 -0.0682 2.1812 1.5134 1.9428 0.7692 2.6354 -0.0442 -0.3428 -0.5656 0.1488 -0.7848 -2.0156 -0.3192 -1.1178 0.0764 -0.4102 0.4942 1.6794 0.3898 0.7802
-2.6453 -1.3738 -0.9155 -0.7820 -0.6815 -2.4029 -0.6076 -0.1809 1.9404 2.3678 -0.4883 1.5482 1.4631 1.9026 1.0942 2.0041 0.3478 -0.7315 -1.1941 0.5598 -0.2652 -1.8121 -0.2163 -1.4049 -0.2118 -0.2496 0.5463 1.4180 0.3803 0.5909
-1.2992 -1.7942 -1.4004 -1.0509 0.4976 -2.3215 -0.5268 0.0773 2.2728 2.3178 -0.1391 1.6140 1.2439 1.8556 0.3483 1.6838 -0.2996 -0.7490 -1.5150 0.2365 0.1070 -1.7173 -0.3517 -1.2698 -0.3650 -0.3422 0.8931 1.2288 0.2598 0.5055
-2.9195 -0.5385 -1.1495 -0.9287 0.3141 -2.3174 -0.5850 -0.5272 1.9020 2.3774 0.4497 1.7843 0.6031 1.8550 0.5218 2.0903 0.2824 -0.6460 -0.6771 -1.2611 -0.4296 -1.4839 -0.1071 -0.9791 0.1984 -0.8912 0.7396 1.3249 0.4240 0.5738
-2.5826 -1.4669 -1.0874 -1.5895 0.5382 -2.1663 0.2629 -1.6827 0.8784 1.3518 0.8838 2.1485 1.5559 1.8471 -0.2425 2.7515 -0.1919 0.4236 -1.2196 0.1172 0.2826 -2.1575 -0.0340 -0.8920 0.1422 -0.4946 0.0541 1.4849 0.4838 0.6011
-0.6821 -1.1306 -2.2571 -2.7155 0.0496 -1.4615 -0.7792 1.1359 1.5466 1.7413 -0.5727 1.8774 2.0775 1.7832 0.8414 2.0457 -0.2433 -0.5407 -1.0604 -0.8287 0.2015 -1.7028 -1.0238 -1.1525 -0.3226 0.4816 0.3347 1.3982 0.3487 0.6104
-3.0899 0.0233 -0.9281 -1.5643 -1.7742 -1.7111 -0.7190 -0.3218 1.4039 2.2796 -0.4921 1.8680 1.3528 1.8676 1.3058 2.5059 0.4895 -0.3725 -0.6402 0.4431 -0.8940 -1.7693 -0.2852 -1.5872 0.0723 -0.3368 0.1868 1.5721 0.3867 0.7285
-0.4670 -0.5676 -2.3108 -2.0811 0.8437 -1.0326 -0.9236 0.3858 1.8181 2.1458 0.5501 1.8077 0.9576 1.5923 -0.2440 2.0240 -0.6271 -0.3388 -1.1292 -1.2672 0.0129 -1.5313 -0.5403 -1.2471 -0.2275 -0.5855 1.0038 1.2323 0.2157 0.5309
-2.5370 0.6701 -1.2377 -1.0040 -0.7802 -2.5114 -0.3677 -0.6285 2.1694 2.4357 0.2775 1.6370 0.6303 1.8276 0.6078 1.8794 0.1969 -0.7481 -1.1589 -0.9963 -0.0588 -1.2019 -0.0315 -1.2171 0.0660 -0.8882 0.8097 1.2580 0.3528 0.5493
-1.9387 -1.9560 -0.9141 -2.7125 0.2516 -1.7413 0.6238 0.5098 -1.4466 1.2856 -0.3526 2.3209 1.5342 1.8972 1.0706 2.8276 -0.1036 0.4253 -1.1377 0.1861 0.1822 -2.2580 -0.5317 -0.5360 0.2610 -0.2054 -0.2364 1.5147 0.3047 0.8752
-1.0867 0.2856 -2.5598 -2.4028 -1.3415 -1.2630 -0.6260 -0.8625 1.7243 2.1992 0.2405 2.0236 1.7915 1.6505 -0.0990 1.7038 -0.8063 -0.1513 -1.3430 0.5738 -0.1221 -1.1975 -0.4340 -1.2389 -0.3719 0.3723 1.0116 1.3336 0.3216 0.6748
-0.6050 -1.0425 -2.0171 -2.8581 -0.2145 -1.3387 -0.5738 1.5893 -0.1544 1.8082 -0.8504 1.8070 2.0878 1.6551 1.2564 1.9513 -0.0530 -0.5140 -1.1751 -0.7765 0.4393 -1.6719 -1.0600 -0.9566 -0.3465 0.4550 0.7098 1.3830 0.2977 0.7684
-1.1185 -2.1247 -1.2144 -2.9590 -0.5361 -1.6091 -0.0171 2.2267 0.2528 1.2775 -1.3776 1.1077 1.8392 0.8940 2.1998 2.3374 0.4321 -0.1732 -0.7284 0.2991 -0.9794 -1.7280 -0.8138 -0.7827 -0.2366 0.7963 0.3551 1.3335 0.2039 0.8432
-1.4381 -2.0957 -0.6504 -2.3899 -0.2472 -2.0044 0.2619 1.8919 -0.6938 1.3466 -1.3022 1.3098 1.3596 1.1888 2.0028 2.7050 0.3545 0.1098 -1.2771 0.2661 0.1758 -2.0902 -0.7365 -0.6101 0.1083 0.4830 -0.3828 1.4139 0.1973 0.7432
-2.8768 -0.9710 -0.6083 -1.8305 1.1155 -1.3981 0.5092 -1.8354 0.9077 0.2288 1.0797 1.6697 1.4968 1.7080 -0.4947 2.5356 0.3401 1.2452 -0.4513 -0.9096 -1.1225 -1.6234 -0.1309 -0.5721 0.7423 -0.9316 -0.2026 1.2692 0.5352 0.5757
-3.0624 0.5850 -0.5841 -1.7576 -0.5894 -2.3068 0.8770 -1.9661 0.6507 1.0791 0.6473 2.2069 1.0236 1.8924 -0.0593 2.7873 0.2696 0.4663 -1.0677 -0.6985 0.0743 -1.6744 0.1679 -1.0037 0.4279 -0.7968 -0.0813 1.3672 0.4885 0.6372
-2.9218 -0.7382 -0.9753 -0.7256 -1.9086 -0.9166 -0.9993 0.3780 1.3730 1.6091 -1.1063 0.7993 1.9386 1.2118 1.9025 2.2563 0.8731 -0.5052 -0.8261 0.6269 -1.1123 -1.4791 -0.7021 -1.4052 -0.2500 0.8973 0.2525 1.3978 0.4682 0.5873
-2.8179 -0.7073 -1.3897 -0.5347 -0.9904 -2.2642 -0.9830 0.9504 1.5149 2.2959 -0.6693 0.0624 2.0688 1.2211 1.8061 1.1621 1.4447 -0.4759 -0.9518 -1.1004 0.1685 -1.3571 -0.4361 -1.1271 -0.1985 -0.1974 1.1099 1.3162 0.4848 0.5951
-2.9878 -1.6084 -0.7514 -1.5092 -0.6659 -2.4791 -0.6080 1.5931 0.7453 2.4314 -0.7940 0.0731 1.4387 0.0827 2.2937 2.3878 1.6039 0.5989 -0.8104 -0.6648 -0.0937 -1.9741 -0.5314 -1.0496 0.0419 0.5805 -0.0666 1.5898 0.4042 0.7294
-1.2568 -1.8095 -2.0708 -2.8234 -0.9372 -0.3882 0.1404 2.3072 -0.0001 0.9780 -1.2388 1.4286 1.9342 1.0909 1.9897 2.2129 0.0746 -0.2416 -0.8180 0.3694 -1.0123 -1.3735 -1.0147 -0.7949 -0.2433 0.9351 0.2622 1.2494 0.2231 0.8275
-2.7308 -0.4543 -1.4869 -0.4990 -1.2348 -2.1718 -0.9551 0.9698 1.5976 2.1928 -0.6782 -0.0923 2.1385 1.1008 1.7767 1.1013 1.5011 -0.4212 -1.0550 -1.0427 0.2247 -1.2619 -0.4371 -1.1437 -0.2183 -0.1919 1.1435 1.2874 0.4672 0.5734
-2.0656 -1.3749 0.3608 -2.7417 -0.0470 -1.5971 0.6828 1.5680 -1.1666 1.3232 -1.3257 1.4225 0.1993 0.9795 1.7566 2.5540 0.7647 1.0577 -0.3709 -0.6377 -1.2789 -1.6544 -0.2645 -0.5739 0.8235 0.1651 -0.8338 1.2499 0.1726 0.8527
-2.9264 -0.2200 -1.2858 -1.4768 -2.1611 -0.7297 -0.6588 1.6872 0.6114 2.1125 -1.0922 0.4701 1.5688 0.5559 2.3829 2.2184 1.3373 0.1309 -0.4529 0.0970 -1.1831 -1.5780 -0.8629 -1.4907 -0.2398 0.3359 0.2916 1.4330 0.3230 0.8022
-2.6487 -1.3628 0.0087 -2.2856 0.8110 -1.0944 1.5952 0.1239 -1.6211 0.3631 -0.3159 2.0837 0.5952 1.8385 0.6679 2.5259 0.3954 1.1780 -0.5114 -0.9026 -1.1291 -1.6285 -0.3003 -0.3144 0.8716 -0.6194 -0.6072 1.1231 0.3323 0.8278
-0.8620 0.5504 -2.1366 -2.4601 0.4016 -0.2269 -0.5127 -0.8971 1.8187 0.4499 1.7398 0.5650 2.0874 0.3427 -0.8715 2.1955 0.3271 1.5731 -0.7200 -1.4168 -0.5733 -1.6020 -0.3633 -1.1978 0.1872 -1.0295 0.5606 1.2368 0.3450 0.4889

>  <OB_ATOM_TYPES> (1lcpA1)
C.3 C.3 N.3 O.3 O.3 O.2 C.3 C.3 C.3 P.3

>  <ENSEMBLE_RMSD> (1lcpA1)
0.000 0.853 0.880 0.997 1.034 1.075 1.079 1.230 1.276 1.281 1.338 1.338 1.418 1.442 1.475 1.476 1.476 1.533 1.538 1.611 1.627 1.719 1.729 1.765 1.887

$$$$
