
 OpenBabel03071213D

 20 19  0  0  0  0  0  0  0  0999 V2000
  -54.4850   70.8190  -15.7040 C   0  0  0  0  0
  -45.3310   65.8730   -5.3050 O   0  0  0  0  0
  -44.2830   67.0500   -6.9170 O   0  0  0  0  0
  -46.4580   66.4050   -7.2810 O   0  0  0  0  0
  -53.2910   69.9690  -15.3490 C   0  0  0  0  0
  -53.0950   69.9120  -13.8510 C   0  0  0  0  0
  -51.7850   69.2370  -13.4850 C   0  0  0  0  0
  -51.5140   69.3300  -11.9890 C   0  0  0  0  0
  -51.5930   70.7720  -11.5080 C   0  0  0  0  0
  -51.1860   70.9170  -10.0520 C   0  0  0  0  0
  -51.3490   72.3590   -9.6090 C   0  0  0  0  0
  -50.8820   72.5900   -8.1830 C   0  0  0  0  0
  -49.3790   72.4250   -8.0370 C   0  0  0  0  0
  -48.9410   72.8080   -6.6300 C   0  0  0  0  0
  -47.4420   72.6290   -6.4110 C   0  0  0  0  0
  -47.0200   71.1750   -6.4880 C   0  0  0  0  0
  -45.5950   70.9810   -5.9950 C   0  0  0  0  0
  -45.1060   69.5650   -6.2620 C   0  0  0  0  0
  -46.0220   68.5020   -5.6230 C   0  0  0  0  0
  -45.5560   66.8670   -6.2820 S   0  0  0  0  0
  1  5  1  0  0  0
  2 20  1  0  0  0
  3 20  2  0  0  0
  4 20  2  0  0  0
  5  6  1  0  0  0
  6  7  1  0  0  0
  7  8  1  0  0  0
  8  9  1  0  0  0
  9 10  1  0  0  0
 10 11  1  0  0  0
 11 12  1  0  0  0
 12 13  1  0  0  0
 13 14  1  0  0  0
 14 15  1  0  0  0
 15 16  1  0  0  0
 16 17  1  0  0  0
 17 18  1  0  0  0
 18 19  1  0  0  0
 19 20  1  0  0  0
M  END
>  <MOLID> (1licA1)
1licA1

>  <SMILES_CANONICAL> (1licA1)
CCCCCCCCCCCCCCCCS(=O)(=O)O	

>  <FINGERPRINT> (1licA1)
0000000000000000000000000000000000000101000000000000000000000000000000000000000000000000000000000000000001010000000000000000000000000000000000000000000000000000000000000000000000000000100000000000100000000000000000000000000000000000000000000000001000000000000000000010000000000000000000000000000000000000000000000000000000000000000000000010000000000000010000000000001000000000010000000000000000000000000000000000000000000000000001000000000000000010100000000000000000000000000000000000000000000000000000000000000000000000000000000000000000000000000000000000000000000000000000000000000000000000001000000000000000000000000000000000000000000001000000000000000000000000000000000000000000000000000000000000000100000000000000000000000100000000000000000000010000000000000100000000000000000000000000000000000000000000000000000000000000001000000000000000000000000000000000000000000000000000000000000000000000000000000000000000000000000000000000000000000001000000000000000000000000000010000000000000000000000001000000010000000000100000

>  <MACCS166> (1licA1)
000000000000000000000000000000000000001100000001001000100101100000100000100000000000000101100000000001010101000101110100000100011111000101111000011110001010001100010000

>  <OB_MW> (1licA1)
306.223

>  <OB_logP> (1licA1)
6.4363

>  <OB_PSA> (1licA1)
62.75

>  <OB_MR> (1licA1)
89.5618

>  <OB_ATOMIC_CHARGES> (1licA1)
0 -0.2907782852 -0.3714351433 -0.3714351433 0 0 0 0 0 0 0 0 0 2.7e-09 6.72e-07 5.38576e-05 0.0017303258 0.0231742639 0.1257723464 -0.1070828966

>  <MCT_HBD> (1licA1)
1

>  <MCT_HBA> (1licA1)
3

>  <ENSEMBLE_TOTAL> (1licA1)
50

>  <ENSEMBLE_COORDS> (1licA1)
-4.3460 -1.7616 -7.2411 2.9411 -3.7308 3.2311 5.3981 -4.0411 2.8626 4.0887 -2.4177 1.4257 -4.2728 -0.3894 -6.6203 -4.2356 -0.5140 -5.1178 -4.0845 0.8547 -4.5038 -3.9260 0.7279 -3.0097 -3.4034 2.0269 -2.4502 -3.1342 1.8729 -0.9751 -2.3457 3.0606 -0.4823 -1.7562 2.7542 0.8713 -0.2832 2.4617 0.7290 0.3332 2.3079 2.0957 1.6622 1.6055 1.9770 1.9796 0.9223 3.2826 3.2833 0.1747 3.1693 3.2576 -1.0062 4.1076 4.5110 -1.8338 3.9553 4.3327 -3.0748 2.6929
-6.6571 -0.8345 -7.0288 5.3774 -3.7405 3.2393 4.2092 -2.0619 1.7924 2.8741 -3.7305 3.1598 -5.2135 -0.5704 -6.6816 -5.1401 0.3670 -5.5025 -3.7041 0.5238 -5.0700 -3.6435 1.3173 -3.7891 -2.2859 1.1455 -3.1561 -2.2271 1.9106 -1.8580 -0.8989 1.6587 -1.1903 -0.9458 2.1364 0.2390 0.4407 2.0813 0.8289 0.3826 2.4146 2.2989 1.7051 2.0876 2.9470 1.6160 0.7492 3.6369 2.9885 0.3149 4.0855 2.9059 -1.0757 4.6642 4.1913 -1.8228 4.4050 4.0251 -2.8705 2.9794
-4.6816 -1.7033 -7.0594 3.3041 -3.0668 0.8035 3.4303 -4.6681 2.7253 5.1412 -2.8141 2.4946 -4.7916 -0.6314 -6.0046 -3.5693 -0.6612 -5.1212 -3.8582 0.0807 -3.8407 -2.5850 0.2623 -3.0530 -2.8151 1.2830 -1.9669 -1.5287 1.5480 -1.2261 -1.7844 2.5550 -0.1326 -0.4759 3.0935 0.3875 -0.6468 3.5274 1.8231 0.6989 3.5862 2.5036 0.9038 2.3542 3.3510 1.8078 1.3883 2.6256 2.0151 0.1545 3.4662 2.9858 -0.7671 2.7726 2.6559 -2.1996 3.1148 3.7939 -3.3213 2.3367
-6.7738 -0.4572 -7.5203 5.5061 -3.8096 4.6107 5.3188 -2.7515 2.3468 3.2974 -3.8370 3.4295 -5.4261 0.0805 -7.1101 -5.4685 0.5133 -5.6659 -4.1076 1.0138 -5.2525 -4.0890 1.2811 -3.7687 -2.6713 1.5460 -3.3295 -2.6148 1.6594 -1.8275 -1.1789 1.5762 -1.3762 -1.1036 1.8087 0.1108 0.3097 1.5826 0.5837 0.3908 1.8488 2.0651 1.8064 1.6415 2.5390 1.7981 1.2494 3.9970 3.1015 0.5830 4.3658 3.1191 -0.8278 3.8330 4.2498 -1.6091 4.4527 4.5363 -3.0921 3.5165
-7.0872 -0.2145 -7.1057 5.6903 -3.6328 4.2993 5.2858 -1.7238 2.7280 3.7649 -3.7543 2.7020 -5.6356 -0.2791 -6.7034 -5.4118 0.5730 -5.4798 -3.9663 0.4817 -5.0620 -3.6967 1.4626 -3.9493 -2.3792 1.1268 -3.2989 -2.1731 1.9959 -2.0846 -0.9300 1.5456 -1.3610 -0.7667 2.3303 -0.0843 0.4910 1.8797 0.6136 0.4962 2.3813 2.0362 1.7006 1.8359 2.7640 1.3608 0.5021 3.3817 2.5541 -0.0379 4.1277 2.3994 -1.5289 4.2973 3.6967 -2.1349 4.7743 4.6067 -2.8087 3.4050
-5.8989 -1.7175 -6.3860 5.8253 -3.6551 3.3780 4.3636 -2.3594 1.8093 3.3578 -4.0843 3.3746 -4.5852 -1.0711 -6.0240 -4.8408 0.1607 -5.1927 -3.5289 0.7433 -4.7302 -3.7910 1.8469 -3.7366 -2.4822 2.3761 -3.2067 -2.7326 3.1754 -1.9515 -1.4472 3.3304 -1.1765 -1.3670 2.2655 -0.1114 -0.0895 2.4172 0.6752 -0.0065 1.3080 1.6929 1.3451 1.3138 2.3611 1.4256 0.1463 3.3118 2.8217 0.0243 3.8676 2.9532 -1.2968 4.5847 4.3386 -1.8615 4.3853 4.3388 -3.0620 3.0752
-6.8467 -0.5729 -6.9061 4.1709 -1.6748 1.8493 2.8626 -3.5858 2.8150 5.3926 -3.5705 2.9383 -5.3980 -0.6277 -6.4914 -5.1166 0.4662 -5.4924 -3.7118 0.3181 -4.9660 -3.4788 1.3105 -3.8551 -2.2463 0.9134 -3.0837 -2.0174 1.8814 -1.9508 -0.8421 1.4118 -1.1324 -0.8021 2.1485 0.1822 0.4702 1.7891 0.9061 0.5122 2.4781 2.2472 1.7735 2.0888 2.9784 1.5312 0.8410 3.7921 2.8462 0.2968 4.2898 2.7160 -1.1848 4.5411 4.0642 -1.8477 4.3928 4.1200 -2.8793 2.9456
-5.9874 0.9433 -8.2707 4.4464 -2.2578 5.4946 6.0531 -3.7601 4.3016 3.6333 -3.6389 3.5636 -6.0514 0.8985 -6.7648 -4.6680 0.6787 -6.2066 -4.7478 0.5060 -4.7108 -3.3853 0.7235 -4.1024 -3.5255 0.9154 -2.6137 -2.1888 1.2798 -2.0187 -2.3666 1.6062 -0.5577 -1.0515 2.0500 0.0302 -1.0955 1.8902 1.5297 0.2875 2.0670 2.1033 0.8939 0.7189 2.4055 2.3821 0.8752 2.5866 3.0478 -0.4773 2.5779 4.2933 -0.4185 3.4260 5.2052 -1.5821 3.1231 4.8251 -3.0180 4.1034
-5.1220 -0.5682 -7.9733 5.2112 -2.5900 5.4624 6.5095 -3.8186 3.7080 4.0312 -4.2549 4.0009 -4.9940 0.6316 -7.0689 -4.4042 0.2102 -5.7465 -4.5269 1.3426 -4.7584 -3.8535 0.9655 -3.4630 -3.6243 2.2072 -2.6386 -3.2991 1.8216 -1.2180 -2.7601 3.0235 -0.4810 -2.1153 2.5894 0.8122 -0.6853 2.1807 0.5583 -0.0413 1.7450 1.8495 1.3401 1.2149 1.5610 1.7840 0.3105 2.6826 3.0921 -0.3401 2.3102 3.4646 -1.3650 3.3505 4.8209 -1.9417 3.0234 5.1724 -3.3640 4.0288
-4.7709 0.6479 -8.3281 5.1467 -3.7952 5.1306 5.5804 -3.0567 2.7768 3.2189 -3.0685 3.7054 -4.7547 0.0714 -6.9346 -4.9307 1.1785 -5.9259 -4.9512 0.5977 -4.5342 -4.9233 1.7149 -3.5202 -4.4642 1.1856 -2.1838 -2.9881 1.4477 -2.0206 -2.5823 1.2456 -0.5834 -1.1146 1.5587 -0.4388 -0.6995 1.4038 1.0019 0.8039 1.4654 1.0988 1.2487 0.9296 2.4362 2.7270 0.6384 2.3907 3.2146 0.2371 3.7600 4.6572 -0.1959 3.6615 4.9356 -1.3142 4.6365 4.6467 -2.8917 3.8712
-5.0273 -2.0211 -6.1302 6.1438 -3.5322 3.8210 4.7084 -3.7932 1.7836 3.8004 -4.3791 4.0793 -3.8569 -1.2583 -5.5622 -4.3391 0.0460 -4.9793 -3.1707 0.8086 -4.4067 -3.6747 2.0406 -3.6985 -2.5461 2.6884 -2.9375 -3.1144 3.5742 -1.8561 -2.0360 3.9319 -0.8644 -2.0109 2.9202 0.2546 -0.6133 2.8246 0.8118 -0.5306 1.6620 1.7672 0.8821 1.5254 2.2759 1.1075 0.1094 2.7392 2.5749 -0.1208 2.9975 2.8076 -1.5966 3.1936 4.2616 -1.8582 3.4986 4.6336 -3.5718 3.2127
-6.1697 -0.4213 -7.8689 5.6573 -3.5314 5.2263 5.7055 -1.6102 3.6196 4.8942 -3.8936 2.8677 -6.1922 0.0251 -6.4289 -4.8564 0.6213 -6.0627 -4.8808 1.0596 -4.6204 -3.5059 1.5184 -4.2052 -3.4143 1.5213 -2.7004 -2.0216 1.9127 -2.2768 -1.9330 1.8918 -0.7720 -0.5648 2.3532 -0.3400 -0.4090 2.1434 1.1447 1.0358 2.3406 1.5315 1.3347 1.5804 2.7993 1.8587 0.2075 2.4582 2.4706 -0.4191 3.6845 2.5311 -1.9156 3.5062 3.4280 -2.5187 4.5594 5.0316 -2.8655 3.8781
-5.7221 -0.5722 -8.0699 6.2111 -3.6913 4.1820 4.2264 -3.2421 2.7204 3.9424 -3.5064 5.2281 -5.1191 0.6081 -7.3503 -5.1716 0.3763 -5.8609 -4.5321 1.5396 -5.1450 -4.5235 1.2781 -3.6599 -3.5440 2.2069 -2.9873 -3.3841 1.8083 -1.5419 -2.0607 2.3091 -1.0214 -1.6013 1.4268 0.1116 -0.1967 1.8019 0.5122 0.2315 0.9529 1.6821 1.7166 1.0938 1.9016 2.0986 0.3816 3.1743 3.5938 0.1971 3.2331 3.9524 -0.5174 4.5128 5.1756 -1.3762 4.3021 4.7069 -3.0752 4.0763
-6.7122 -0.7873 -7.1947 4.2926 -4.0456 5.0099 6.6137 -3.1102 5.1164 5.5488 -3.6309 2.8775 -5.3668 -0.1845 -6.8773 -5.4939 0.7382 -5.6912 -4.1245 1.1946 -5.2538 -4.2330 1.9303 -3.9417 -2.8606 2.1026 -3.3408 -2.9893 2.5233 -1.8982 -1.6348 2.4854 -1.2365 -1.8017 2.5311 0.2622 -0.4470 2.5693 0.9246 -0.1619 1.2395 1.5771 1.2556 1.2211 2.0909 1.6401 -0.1897 2.4582 2.9606 -0.1821 3.1858 3.4352 -1.6003 3.3755 4.6255 -1.6164 4.3031 5.4536 -3.1884 4.2530
-7.3430 -0.3063 -7.2609 4.0608 -3.8656 3.8465 6.3694 -3.3534 4.6690 5.3777 -2.0318 2.7493 -5.8958 0.0031 -6.9717 -5.7901 0.7745 -5.6803 -4.3371 1.0116 -5.3550 -4.2168 1.6565 -3.9975 -2.7845 1.5783 -3.5333 -2.6849 2.0543 -2.1063 -1.2464 1.9949 -1.6588 -1.1892 1.7869 -0.1669 0.2463 1.6227 0.2642 0.2989 1.4073 1.7551 1.7099 1.0798 2.1739 1.6781 0.3600 3.4981 3.0766 -0.0207 3.9116 3.0268 -1.3104 4.6926 4.4066 -1.6946 5.1700 5.2366 -2.7473 4.0003
-5.6877 -0.4226 -7.8846 5.4405 -3.9044 5.3766 6.3572 -2.4741 3.5352 4.0757 -3.5606 3.3042 -5.9659 0.1280 -6.5086 -4.6720 0.5680 -5.8721 -4.9492 1.1590 -4.5131 -3.6912 1.7960 -3.9798 -4.0224 2.6310 -2.7681 -2.7512 3.0165 -2.0545 -2.5005 2.0638 -0.9125 -1.0454 2.1193 -0.5242 -0.7689 1.0837 0.5355 0.6847 1.1452 0.9286 0.9731 0.0819 1.9570 2.4032 0.2037 2.4168 2.5983 -0.6056 3.6731 4.0262 -0.4674 4.1396 4.3849 -1.6201 5.0455 5.1108 -2.9413 4.1054
-3.2594 -0.1631 -7.5341 6.6892 -3.5101 3.8096 4.3045 -4.2695 3.6942 5.1144 -2.8713 5.6503 -4.4289 0.5560 -6.9104 -4.4031 0.3605 -5.4157 -5.4027 1.2859 -4.7666 -5.2871 1.1935 -3.2654 -4.2991 2.2170 -2.7625 -3.9113 1.8872 -1.3435 -2.5711 2.5032 -1.0322 -2.0614 1.9680 0.2817 -0.5545 2.0226 0.2963 -0.0485 1.5428 1.6324 1.4362 1.2889 1.5562 1.8269 0.3350 2.6557 3.2409 -0.1473 2.4529 3.5362 -1.2169 3.4733 4.9327 -1.7535 3.2802 5.1460 -3.2289 4.2476
-6.7398 -0.5464 -7.1187 6.2652 -2.9951 5.6817 6.2955 -2.7530 3.1880 4.7295 -4.4114 4.2994 -5.3952 -0.3694 -6.4590 -5.4082 0.8817 -5.6177 -4.0336 1.1310 -5.0495 -4.1091 2.2430 -4.0337 -2.7451 2.4905 -3.4413 -2.8956 3.1856 -2.1103 -1.5843 3.1599 -1.3650 -1.5578 1.9773 -0.4294 -0.3889 2.0950 0.5150 -0.2666 0.8180 1.3067 0.9389 0.8860 2.2090 1.4049 -0.5146 2.5147 2.5408 -0.4739 3.5046 3.2291 -1.8147 3.5189 4.2808 -1.8402 4.6000 5.4394 -3.1493 4.2864
-7.2243 0.5555 -8.0435 4.4432 -3.0852 5.9559 6.8785 -2.8535 5.4213 5.3053 -3.9387 3.7582 -6.0476 1.2987 -7.4623 -5.9754 1.0445 -5.9780 -4.7737 1.7469 -5.3988 -4.6103 1.3498 -3.9535 -3.2133 1.6806 -3.4939 -3.0328 1.2307 -2.0665 -1.6273 1.5388 -1.6178 -1.4223 1.0262 -0.2153 -0.0884 1.4996 0.3033 0.1251 0.9661 1.6970 1.5202 1.3027 2.1586 1.9488 0.3257 3.2241 3.4026 -0.0248 3.0296 3.6971 -1.3487 3.6868 5.1162 -1.3521 4.2018 5.5784 -2.9629 4.7930
-6.8884 0.8540 -8.0053 6.0233 -2.8551 5.6248 5.1859 -0.6253 4.8495 5.6829 -2.4646 3.1745 -6.3326 0.2952 -6.7199 -5.5208 1.3547 -6.0184 -5.0070 0.8091 -4.7106 -3.7748 1.5704 -4.2918 -3.5096 1.3189 -2.8297 -2.0952 1.7151 -2.4900 -1.8468 1.4494 -1.0269 -0.4199 1.7877 -0.6775 -0.1416 1.3552 0.7399 1.3391 1.4314 1.0182 1.6215 0.9194 2.4096 2.0833 -0.5144 2.3362 2.0616 -1.1374 3.7096 2.6904 -2.5078 3.6343 3.6253 -2.7321 4.7983 5.2234 -2.0237 4.4751
-7.1511 2.1199 -7.8703 4.8848 -2.3479 2.9573 3.6803 -3.1956 4.9875 6.2095 -3.2745 4.8700 -6.1156 1.1735 -7.3174 -5.8753 1.4793 -5.8604 -4.7603 0.6071 -5.3410 -4.5313 0.8932 -3.8785 -3.1187 0.5186 -3.5068 -2.8587 0.8905 -2.0687 -1.4175 0.6061 -1.7300 -1.1637 0.9101 -0.2754 0.2984 0.7008 0.0325 0.5579 1.0270 1.4812 1.9993 0.7458 1.8249 2.1100 0.4758 3.3044 3.5551 0.5067 3.7319 3.7017 -0.2603 5.0233 5.0489 -0.9387 5.0759 4.9463 -2.6375 4.5597
-5.3318 0.3510 -8.4448 6.9757 -3.0778 4.8210 4.7845 -4.1654 4.2790 4.9713 -2.5510 6.2273 -5.6530 1.2765 -7.2981 -4.7194 0.9921 -6.1495 -5.1744 1.7377 -4.9201 -4.3529 1.2857 -3.7400 -4.4184 2.3134 -2.6378 -3.9126 1.7078 -1.3512 -2.4194 1.8995 -1.2468 -1.8798 1.0788 -0.1034 -0.3913 1.2926 0.0126 0.0958 0.7281 1.3228 1.6007 0.8031 1.3856 2.0674 0.2897 2.7242 3.4635 -0.2687 2.6073 3.7661 -1.0874 3.8362 5.1765 -1.6196 3.7764 5.3515 -2.9862 4.8993
-7.4880 1.1928 -8.0088 4.3355 -3.8829 4.5874 5.2032 -2.3474 6.3728 6.7947 -3.4249 4.7220 -6.1506 1.5818 -7.4307 -6.0802 1.1763 -5.9790 -4.7261 1.5418 -5.4231 -4.6148 1.0962 -3.9859 -3.1633 1.0956 -3.5756 -3.0459 1.0404 -2.0726 -1.5862 1.0204 -1.6938 -1.4334 1.1423 -0.1987 0.0329 1.2481 0.1374 0.2169 1.3080 1.6327 1.6904 1.3220 1.9554 2.0174 0.1738 2.8763 3.5118 0.0703 3.0474 3.8239 -0.9264 4.1343 5.1550 -1.5802 3.8541 5.5070 -2.8481 5.0483
-6.9541 -0.3250 -7.6476 5.7759 -4.4074 4.9839 5.3107 -2.3649 6.3586 6.6933 -2.1991 4.2378 -6.7684 0.7473 -6.6038 -5.3419 0.7348 -6.1151 -5.1354 1.8567 -5.1288 -3.6972 1.8732 -4.6759 -3.6381 2.1371 -3.1925 -2.2269 1.9391 -2.7005 -2.1778 2.1570 -1.2095 -0.7552 2.0272 -0.7276 -0.7479 1.7294 0.7505 0.6749 1.5825 1.2267 0.7911 0.3730 2.1201 2.2441 0.1320 2.4407 2.4052 -1.1929 3.1422 3.8066 -1.2912 3.6883 4.1246 -2.7222 4.0450 5.6166 -2.7866 5.0076
-5.7692 2.0904 -8.5448 6.2795 -3.3743 5.3382 3.8093 -3.0706 5.0505 5.1846 -1.3247 6.2740 -6.1371 1.7413 -7.1246 -4.9230 1.2126 -6.4036 -5.2246 1.0745 -4.9321 -3.9560 0.7331 -4.1927 -4.1405 0.9715 -2.7151 -2.7896 0.9777 -2.0460 -2.9497 1.1394 -0.5548 -1.6541 1.6314 0.0424 -0.8470 0.4638 0.5548 0.4696 0.9594 1.0976 1.3682 -0.2139 1.3982 2.6302 0.2748 2.0632 3.4987 -0.9023 2.4282 4.6059 -0.4473 3.3462 5.5078 -1.6108 3.6817 5.0369 -2.3260 5.2385
-6.4413 -0.9544 -6.6337 5.8346 -3.8469 5.2752 6.3123 -1.4147 4.9116 5.2547 -2.8058 3.0719 -5.8954 0.4513 -6.6362 -5.7690 0.9481 -5.2179 -5.0976 2.2993 -5.2131 -4.5759 2.6067 -3.8316 -3.0926 2.3361 -3.7712 -2.6064 2.5094 -2.3544 -1.3840 1.6558 -2.1279 -0.8388 1.9072 -0.7440 -0.0815 0.6906 -0.2743 0.5848 0.9795 1.0474 1.1101 -0.3061 1.6363 1.9030 -0.0072 2.8833 2.2925 -1.2974 3.5596 3.2017 -0.9971 4.7260 3.8463 -2.2690 5.2216 5.4426 -2.4855 4.4716
-7.1550 -0.2009 -7.4372 6.3033 -1.6131 5.5398 5.9483 -2.9742 3.4608 5.7922 -4.0565 5.7463 -6.7764 1.0217 -6.6391 -5.3342 0.9215 -6.2092 -5.0408 1.9735 -5.1690 -3.5909 1.8948 -4.7608 -3.4149 2.5237 -3.4015 -2.0378 2.2149 -2.8709 -2.1338 1.8608 -1.4084 -0.7654 1.9251 -0.7793 -0.7747 1.1690 0.5256 0.6260 1.1068 1.0777 0.7187 0.0255 2.1247 2.1592 -0.1291 2.5414 2.2884 -1.2162 3.5776 3.6657 -1.1486 4.1878 3.9187 -2.3768 5.0272 5.6033 -2.9218 4.8664
-7.0539 1.1144 -8.2120 5.3251 -1.8426 6.4166 6.7637 -1.8658 4.3602 6.1870 -4.0280 5.5471 -6.6070 0.6602 -6.8452 -5.3345 1.3728 -6.4599 -5.0022 1.0632 -5.0216 -3.8919 1.9650 -4.5429 -3.8755 1.9806 -3.0347 -2.4688 2.1999 -2.5380 -2.4381 2.0434 -1.0381 -1.0087 2.0289 -0.5580 -0.8689 1.0596 0.5891 0.5613 1.0481 1.0654 0.8420 -0.2336 1.8091 2.2374 -0.1857 2.3789 2.5869 -1.5192 2.9895 3.9151 -1.4159 3.6962 4.2853 -2.7595 4.2753 5.8457 -2.6859 5.1231
-7.3393 1.4254 -8.2895 6.1261 -1.5589 6.1660 6.7769 -3.5401 4.7783 4.4819 -3.4272 5.8445 -6.9130 1.9784 -6.9528 -5.6433 1.2977 -6.5079 -5.1714 1.8990 -5.2080 -4.1570 0.9836 -4.5700 -3.4224 1.7213 -3.4795 -2.6531 0.7371 -2.6348 -1.9172 1.4744 -1.5446 -1.1016 0.4977 -0.7356 -0.3159 1.2434 0.3133 0.3179 0.2590 1.2632 1.3762 0.9546 2.0823 1.8274 0.0490 3.2007 3.2701 -0.3377 2.9905 3.7748 -1.0787 4.2022 5.0610 -1.7908 3.8606 5.6218 -2.7872 5.2214
-6.4804 2.4824 -8.3873 6.7861 -1.9583 5.2903 5.1997 -3.2865 3.8716 5.1450 -3.4945 6.3956 -6.2924 2.6077 -6.8966 -5.6913 1.3354 -6.3547 -5.4426 1.4885 -4.8759 -4.4377 0.4611 -4.4203 -4.1440 0.6671 -2.9563 -2.7164 0.2812 -2.6647 -2.3018 0.8753 -1.3429 -0.8378 0.6089 -1.1050 -0.4881 0.9666 0.3169 0.9768 0.7028 0.5547 1.2405 0.6299 2.0369 2.6556 0.1684 2.2760 2.8654 -0.0555 3.7518 4.2795 -0.5147 4.0011 4.3387 -1.2533 5.3158 5.3452 -2.7125 5.1932
-7.3166 0.8233 -7.6209 5.8961 -2.3106 6.6499 6.6992 -1.5844 4.3913 5.7252 -3.9034 4.7240 -6.3440 0.3807 -6.5573 -5.5520 1.5655 -6.0621 -4.5607 1.0970 -5.0276 -3.8652 2.2747 -4.3919 -3.2161 1.8138 -3.1115 -2.4222 2.9334 -2.4861 -2.1363 2.6022 -1.0409 -0.8736 1.7821 -0.9359 -0.7750 1.1708 0.4400 0.3569 0.1748 0.4628 0.5937 -0.3127 1.8706 1.9702 -0.9236 1.9548 2.2424 -1.4044 3.3579 3.6747 -1.8680 3.4548 4.1320 -1.8211 4.8921 5.7713 -2.4901 5.0358
-6.2240 -0.7446 -7.1995 5.6990 -4.0822 5.6484 6.0235 -1.6098 5.8799 6.4095 -2.7528 3.6481 -6.2915 0.5636 -6.4519 -5.0829 0.7003 -5.5600 -5.1559 2.0012 -4.7998 -3.7833 2.3728 -4.2969 -3.9065 3.1564 -3.0126 -2.5619 3.2459 -2.3325 -2.3934 2.0868 -1.3810 -0.9922 2.0758 -0.8238 -0.7872 0.8211 -0.0105 0.5630 0.8643 0.6594 0.7869 -0.3960 1.4594 2.1176 -0.3025 2.1642 2.3186 -1.4870 3.0767 3.6015 -1.3031 3.8506 3.9568 -2.5781 4.5758 5.7025 -2.6323 4.9061
-5.3553 -1.2024 -6.7919 5.4614 -1.2261 3.1371 6.5837 -3.0892 4.3768 5.2256 -1.3572 5.6322 -5.0957 0.2525 -6.4930 -4.9123 0.4407 -5.0081 -4.7095 1.9048 -4.7106 -4.3458 2.0860 -3.2590 -3.4923 3.3218 -3.1090 -2.8903 3.3721 -1.7274 -1.6251 2.5505 -1.6811 -1.4770 1.9545 -0.3050 -0.2874 1.0302 -0.2716 -0.0383 0.6015 1.1518 1.0841 -0.4027 1.1910 1.2855 -0.8699 2.6100 2.3694 -1.9155 2.6421 2.7722 -2.1877 4.0699 3.9841 -3.0879 4.0844 5.4630 -2.1759 4.4614
-7.0511 1.2835 -8.3476 6.6955 -3.3701 4.5799 4.8257 -3.2583 6.2445 6.0688 -1.1534 5.5639 -6.5969 1.9590 -7.0784 -5.7861 0.9937 -6.2504 -5.3127 1.6848 -4.9965 -4.3574 0.7896 -4.2482 -3.5715 1.6122 -3.2581 -2.8019 0.6992 -2.3375 -1.6777 1.4661 -1.6869 -0.9337 0.5598 -0.7387 0.0588 1.3622 0.0649 0.4145 0.6054 1.3195 1.6461 1.2069 1.9505 2.0059 0.4394 3.1992 3.0225 -0.6237 2.8652 3.3122 -1.4609 4.0847 4.5120 -2.3342 3.8098 5.5271 -2.4614 5.2600
-6.2717 0.8324 -8.4563 4.6316 -3.4737 4.9684 3.8841 -1.1984 5.7202 6.1901 -2.0567 6.3213 -5.5457 1.7217 -7.4789 -5.7696 1.2172 -6.0756 -4.8930 1.9849 -5.1193 -4.7906 1.2406 -3.8120 -3.6618 1.8215 -2.9995 -3.3995 0.9567 -1.7935 -2.2591 1.5439 -1.0010 -1.5696 0.4511 -0.2255 -0.3249 0.9997 0.4242 0.2875 -0.0609 1.3026 1.6620 0.3754 1.7424 2.4850 -0.8438 2.0691 3.8827 -0.4347 2.4591 4.6971 -1.6770 2.7208 5.6943 -1.4337 3.8274 5.0710 -1.9664 5.4063
-8.0800 1.5960 -7.0910 6.5125 -1.9686 4.4020 4.4245 -3.3240 4.0792 5.6686 -3.3881 6.2847 -6.6984 1.0120 -6.9348 -5.8624 1.9119 -6.0596 -4.5037 1.2917 -5.8490 -3.8079 1.9664 -4.6931 -3.1440 0.9244 -3.8283 -2.1588 1.5835 -2.8958 -1.8440 0.6457 -1.7572 -0.7749 1.2467 -0.8795 -0.3808 0.2558 0.1876 0.7724 0.8050 0.9888 1.0925 -0.1276 2.1304 2.4230 0.2550 2.7275 2.6564 -0.5116 4.0048 4.0805 -0.2977 4.4555 4.4002 -1.1951 5.6266 5.2243 -2.6813 5.1012
-7.4131 2.4977 -7.6165 4.5905 -2.2931 3.4105 3.9309 -3.1595 5.6645 6.3561 -2.6448 5.1504 -7.0543 2.0652 -6.2171 -5.5916 1.7024 -6.1582 -5.2572 1.1746 -4.7858 -3.7601 1.1240 -4.6118 -3.4216 0.2940 -3.3990 -1.9458 0.3989 -3.1085 -1.6453 -0.2334 -1.7724 -0.4026 0.3919 -1.1918 -0.1546 -0.1415 0.1973 1.1189 0.4625 0.7328 1.3510 0.0255 2.1573 2.5150 0.8027 2.7202 2.8363 0.3278 4.1142 4.3346 0.2304 4.2731 4.6698 -0.6614 5.4407 4.9431 -2.3642 5.0001
-8.2677 1.6965 -5.4178 5.7716 -3.2753 5.8420 6.1598 -0.9379 5.0288 5.0703 -2.6601 3.5173 -6.9806 0.9473 -5.1798 -5.8100 1.8070 -5.5866 -4.5267 1.0372 -5.3990 -3.3770 1.9997 -5.2289 -2.1733 1.2698 -4.6856 -2.0419 1.5425 -3.2078 -0.8256 0.8401 -2.6593 -0.6643 1.1910 -1.2013 0.1750 0.1444 -0.5128 0.4413 0.5683 0.9099 1.1936 -0.5205 1.6336 1.6664 -0.0017 2.9682 2.1159 -1.1501 3.8359 3.0322 -0.6301 4.9168 3.7355 -1.7784 5.5991 5.3055 -2.0896 4.8273
-7.1521 3.3965 -7.2347 3.9094 -2.9215 5.1897 5.9578 -2.5215 6.5733 6.0807 -2.4032 4.0462 -6.7948 2.6596 -5.9685 -5.7790 1.5882 -6.2761 -5.5079 0.7756 -5.0347 -4.0253 0.5344 -4.9021 -3.7175 0.0173 -3.5192 -2.3483 0.4888 -3.0988 -2.0941 0.0951 -1.6658 -0.7027 0.5174 -1.2667 -0.4164 0.0486 0.1373 1.0205 0.3437 0.4856 1.2861 -0.0574 1.9147 2.7120 0.2756 2.2732 2.9806 -0.1154 3.7041 4.4570 0.0080 3.9878 4.7665 -0.5287 5.3642 5.3675 -2.2012 5.2903
-5.3201 1.2043 -8.3986 6.0323 -3.7607 5.6912 5.2141 -1.5344 6.4967 6.8046 -1.6823 4.5257 -5.9548 1.2110 -7.0307 -4.9046 1.4933 -5.9857 -5.5369 1.4846 -4.6164 -4.6453 2.2103 -3.6401 -4.8362 1.6383 -2.2563 -3.7198 2.0965 -1.3495 -2.5730 1.1191 -1.4259 -1.5156 1.4740 -0.4117 -0.3515 0.5259 -0.5611 0.6552 0.7763 0.5323 1.4350 -0.4853 0.8106 2.4064 -0.2278 1.9348 2.9789 -1.5277 2.4418 3.7784 -1.2583 3.6923 4.3419 -2.5486 4.2350 5.7109 -2.2087 5.3155
-7.2240 2.4455 -7.9308 6.7640 -2.0558 5.6176 4.4600 -1.7035 6.5360 5.3846 -0.1515 4.7545 -6.2321 1.4688 -7.3514 -5.8955 1.8673 -5.9363 -4.8107 0.9649 -5.4054 -4.5805 1.2489 -3.9425 -3.2260 0.7226 -3.5409 -3.0134 0.9261 -2.0621 -1.6644 0.3746 -1.6758 -1.2315 0.9514 -0.3516 0.1446 0.4356 -0.0141 0.5235 0.8563 1.3840 1.9406 0.4267 1.6752 1.9266 -0.8002 2.5521 3.2825 -1.4599 2.5387 3.3712 -2.4276 3.6935 4.8113 -2.6280 4.0995 5.2694 -1.4619 5.3599
-6.7395 2.1791 -8.4260 5.8774 -2.9076 4.3385 3.6181 -2.5482 5.3707 5.7184 -2.3383 6.7710 -6.5288 2.4778 -6.9634 -5.8101 1.3250 -6.3091 -5.3501 1.7389 -4.9346 -4.3624 0.7318 -4.4034 -3.6396 1.3231 -3.2203 -2.8176 0.2563 -2.5438 -2.1569 0.8375 -1.3201 -0.9127 0.0502 -0.9998 -0.3865 0.4671 0.3497 0.8291 -0.3579 0.6869 1.3753 0.0674 2.0261 2.7897 -0.4330 2.1693 3.4189 0.1586 3.4055 4.8389 -0.3369 3.5188 5.2263 -0.5059 4.9682 5.0124 -2.1852 5.5158
-7.9326 2.0516 -7.6361 6.2347 -1.1164 6.0450 6.3138 -2.3365 3.8525 6.1038 -3.6176 6.0276 -6.7196 1.2831 -7.1752 -6.1996 1.8786 -5.8910 -4.9602 1.1382 -5.4558 -4.4428 1.7277 -4.1677 -2.9840 1.3818 -4.0085 -2.5126 1.7832 -2.6341 -1.3202 0.9442 -2.2501 -0.8069 1.3809 -0.9014 -0.1028 0.2265 -0.2348 0.5600 0.7003 1.0336 1.0099 -0.4928 1.8382 1.8780 -0.0378 2.9841 2.2981 -1.2345 3.7997 3.6894 -1.0209 4.3399 4.0685 -2.1848 5.2230 5.8250 -2.4548 5.2107
-7.3316 1.2680 -8.0400 6.6314 -1.7266 6.5806 6.5773 -3.0090 4.4291 4.7539 -3.3320 6.1633 -6.9774 1.4071 -6.5810 -5.7595 2.2858 -6.4384 -5.3726 2.3907 -4.9844 -4.1747 1.5140 -4.7170 -3.5261 1.9212 -3.4191 -2.4249 0.9483 -3.0804 -1.6292 1.4792 -1.9151 -1.0619 0.3304 -1.1207 -0.3501 0.8619 0.0982 0.1466 -0.2928 0.9304 1.0393 0.2157 2.0344 1.9169 -0.9107 2.5189 2.9251 -0.3906 3.5121 4.0208 -1.4119 3.6838 4.8803 -1.0514 4.8704 5.7165 -2.4974 5.4751
-7.9727 2.3258 -7.6924 4.6476 -2.6864 6.5849 7.0140 -1.9791 6.1726 5.7110 -3.1874 4.3668 -6.5077 2.1126 -7.4039 -6.2879 2.0707 -5.9125 -4.8578 1.6924 -5.6185 -4.6545 1.6135 -4.1261 -3.4265 0.7920 -3.8226 -3.0196 1.0073 -2.3866 -1.7327 0.2732 -2.1036 -1.3646 0.4562 -0.6529 0.0048 -0.1179 -0.3883 0.4341 0.2609 1.0068 1.8121 -0.2797 1.2940 2.1654 0.0126 2.7311 3.5710 -0.4485 3.0234 3.6487 -0.9291 4.4506 5.0421 -0.7218 4.9939 5.7733 -2.2672 5.4833
-7.3701 1.0518 -8.0008 6.8278 -2.3295 4.4003 4.9670 -3.7333 5.3303 6.2666 -2.1639 6.8355 -6.7628 0.7749 -6.6486 -5.6559 1.7630 -6.3790 -5.2018 1.6341 -4.9469 -3.9220 2.4078 -4.7487 -3.6040 2.4959 -3.2767 -2.4322 1.6018 -2.9574 -2.1361 1.6551 -1.4798 -0.9203 0.8133 -1.1856 -0.6428 0.8110 0.2965 0.4561 -0.1777 0.5948 0.9573 0.0210 2.0030 2.0585 -0.9701 2.2853 2.7417 -0.6198 3.5830 4.0217 -1.4075 3.7033 4.6655 -1.1325 5.0406 5.6859 -2.4957 5.5509
-5.2279 1.9058 -8.5310 7.2347 -2.5301 5.3770 4.9447 -3.5202 5.6082 5.4699 -1.2486 6.6082 -5.8398 2.3576 -7.2289 -5.4851 1.3802 -6.1369 -5.9402 1.9227 -4.8047 -5.4208 1.0455 -3.6929 -4.2435 1.7133 -3.0273 -3.6832 0.8091 -1.9591 -2.2124 1.0934 -1.7853 -1.7654 0.6470 -0.4165 -0.2718 0.4353 -0.4136 0.1903 0.1821 0.9986 1.6287 -0.2716 1.0046 2.1032 -0.3690 2.4327 3.5236 -0.8727 2.4795 3.9777 -0.9318 3.9165 5.3748 -1.4961 3.9928 5.6426 -2.2519 5.5784
-7.4786 2.6509 -8.0269 6.6232 -1.6328 6.5904 5.9874 -3.3522 4.8843 4.2152 -2.2646 6.3331 -6.0988 2.6242 -7.4195 -6.1641 2.0401 -6.0303 -4.7642 1.8255 -5.5127 -4.8112 1.2765 -4.1087 -3.4812 0.6471 -3.7782 -3.2050 0.7660 -2.3005 -1.9374 0.0178 -1.9700 -1.4788 0.3806 -0.5803 -0.2596 -0.4314 -0.2200 0.4227 0.1899 0.9727 1.6176 -0.6407 1.3696 2.2845 -0.0130 2.5675 3.5661 -0.7410 2.8864 4.0486 -0.3157 4.2508 5.4501 -0.8189 4.4909 5.4637 -2.2083 5.6013
-4.8980 3.7905 -7.4419 6.3309 -1.2194 6.7024 6.6710 -2.4393 4.5404 4.7911 -3.1045 6.1093 -5.7839 3.2146 -6.3659 -5.3084 1.8294 -6.0069 -6.0537 1.3385 -4.7905 -5.2986 0.1970 -4.1571 -4.6386 0.6667 -2.8846 -3.3060 -0.0202 -2.7241 -2.5941 0.5386 -1.5183 -1.2328 -0.0972 -1.3953 -0.5162 0.4733 -0.1977 0.7868 -0.2577 0.0021 1.5160 0.3160 1.1908 2.3313 -0.7712 1.8427 3.1138 -0.2074 3.0015 3.7940 -1.3405 3.7263 4.6420 -0.8028 4.8521 5.6535 -2.1045 5.5148
-7.9622 1.6238 -7.5188 4.8741 -0.8940 6.5466 5.8469 -0.6313 4.2474 6.7900 -2.3479 5.8532 -6.4790 1.5733 -7.2530 -6.2108 1.9635 -5.8215 -4.7269 1.9268 -5.5589 -4.4765 1.8615 -4.0736 -3.0751 1.3641 -3.8270 -2.8170 1.2736 -2.3448 -1.4712 0.6346 -2.1118 -1.1259 0.7082 -0.6467 0.2715 0.1867 -0.4286 0.6233 0.3004 1.0329 1.8591 -0.5132 1.3195 1.9743 -0.7439 2.8047 2.9174 -1.8903 3.0673 3.1035 -2.0487 4.5550 4.4081 -2.7513 4.8442 5.6764 -1.5960 5.3137

>  <OB_ATOM_TYPES> (1licA1)
C.3 O.3 O.2 O.2 C.3 C.3 C.3 C.3 C.3 C.3 C.3 C.3 C.3 C.3 C.3 C.3 C.3 C.3 C.3 S.3

>  <ENSEMBLE_RMSD> (1licA1)
1.378 1.452 1.544 1.593 1.642 1.725 1.740 1.740 1.794 1.814 1.839 1.860 1.957 2.000 2.050 2.066 2.183 2.192 2.317 2.389 2.410 2.459 2.471 2.573 2.580 2.581 2.653 2.690 2.705 2.709 2.710 2.713 2.718 2.723 2.748 2.758 2.825 2.855 2.883 2.899 2.916 2.917 2.953 2.986 2.991 3.031 3.047 3.079 3.116 3.159

$$$$
