
 OpenBabel03071213D

 29 30  0  0  0  0  0  0  0  0999 V2000
   39.8640   40.7040   25.0660 C   0  0  0  0  0
   43.4840   48.9450   30.3350 C   0  0  0  0  0
   36.3670   45.8430   30.6360 O   0  0  0  0  0
   43.6890   44.3450   31.2500 O   0  0  0  0  0
   43.5150   41.5300   27.1820 O   0  0  0  0  0
   37.6890   47.5650   33.2520 O   0  0  0  0  0
   39.5780   49.3360   32.1270 O   0  0  0  0  0
   39.5800   43.5510   28.5750 O   0  0  0  0  0
   40.4010   39.7940   27.1200 O   0  0  0  0  0
   41.9210   49.2460   28.5090 O   0  0  0  0  0
   37.1830   45.1340   31.5420 C   0  0  0  0  0
   43.9420   45.0700   30.0580 C   0  0  0  0  0
   40.9800   42.1200   26.5440 N   0  0  0  0  0
   41.5110   48.0870   30.6420 N   0  0  0  0  0
   43.5920   43.3460   28.5900 O   0  0  0  0  0
   39.2890   45.4920   30.6120 O   0  0  0  0  0
   40.9950   45.8030   29.4140 O   0  0  0  0  0
   43.1180   42.9050   27.2660 C   0  0  0  0  0
   38.3730   47.2820   32.0190 C   0  0  0  0  0
   39.8330   47.8970   32.0960 C   0  0  0  0  0
   40.8560   43.8410   27.9800 C   0  0  0  0  0
   38.4950   45.7490   31.7920 C   0  0  0  0  0
   43.0600   44.6390   28.9530 C   0  0  0  0  0
   40.6770   45.8900   30.7640 C   0  0  0  0  0
   41.5670   42.6280   27.3760 C   0  0  0  0  0
   40.7690   47.4390   30.9690 C   0  0  0  0  0
   41.5760   44.4680   29.2720 C   0  0  0  0  0
   40.4810   40.8510   26.4580 C   0  0  0  0  0
   42.1100   48.7950   29.6690 C   0  0  0  0  0
  1 28  1  0  0  0
  2 29  1  0  0  0
  3 11  1  0  0  0
  4 12  1  0  0  0
  5 18  1  0  0  0
  6 19  1  0  0  0
  7 20  1  0  0  0
  8 21  1  0  0  0
  9 28  2  0  0  0
 10 29  2  0  0  0
 11 22  1  0  0  0
 12 23  1  0  0  0
 13 25  1  0  0  0
 13 28  1  0  0  0
 14 26  1  0  0  0
 14 29  1  0  0  0
 15 18  1  0  0  0
 15 23  1  0  0  0
 16 22  1  0  0  0
 16 24  1  0  0  0
 17 24  1  0  0  0
 17 27  1  0  0  0
 18 25  1  0  0  0
 19 20  1  0  0  0
 19 22  1  0  0  0
 20 26  1  0  0  0
 21 25  1  0  0  0
 21 27  1  0  0  0
 23 27  1  0  0  0
 24 26  1  0  0  0
M  END
>  <MOLID> (1lmoA1)
1lmoA1

>  <SMILES_CANONICAL> (1lmoA1)
OC[C@H]1O[C@@H](O)[C@@H]([C@H]([C@@H]1O[C@@H]1O[C@H](CO)[C@H]([C@@H]([C@H]1NC(=O)C)O)O)O)NC(=O)C	

>  <FINGERPRINT> (1lmoA1)
0000000000000000000000000100000000000001000000000101000000000000000000000001000000000001000000001000000010000001000001010000000010000000001110000000000011000000000000000000000000000000000000000000000000000000001010000000000000101000000000000000000001000000000000000010000000100000000000000000000100000000000000001010000000000000001000000000000000000000010000000000000110000000000000000000000000000000100000000000001000000011100010000000000000000000000000000000000000010000000010000000000000101001100100000000100000010000101000000000000000000000000000000000000000000000000000000001000111000000101000000000000000000000000000000000001000000001000000000001000000000000001000000001000000010100000001100000000000010111000000000000000010000000000010000001000000000000000110000001000000000000000001000000000100000000000000000000000000000000000000001000000000000010000000000011010000000000000000000010000100000000000000000000001000000000000000000000010000000000000000010000000011100000000000000000000000000000000000000000101000000000

>  <MACCS166> (1lmoA1)
000000000000000000000000000000000000000000000000000011001000000000000001000000000100000011110010110000000001110000001001001001100011100111111110110011111111111110111000

>  <OB_MW> (1lmoA1)
424.169

>  <OB_logP> (1lmoA1)
-4.3278

>  <OB_PSA> (1lmoA1)
207.27

>  <OB_MR> (1lmoA1)
91.0272

>  <OB_ATOMIC_CHARGES> (1lmoA1)
0.0964264805 0.0964264753 -0.2176082134 -0.2176098682 -0.187876998 -0.2176348673 -0.218285246 -0.2184028173 -0.273326908 -0.273326913 0.2142056143 0.2140901017 -0.199141939 -0.1992431896 -0.324343362 -0.3262279791 -0.3263719015 0.2917318105 0.2135750855 0.2093983951 0.2063357016 0.1834298038 0.1803462785 0.2586244591 0.1869727322 0.1841923076 0.1795461201 0.2420499999 0.242048837

>  <MCT_HBD> (1lmoA1)
8

>  <MCT_HBA> (1lmoA1)
13

>  <ENSEMBLE_TOTAL> (1lmoA1)
50

>  <ENSEMBLE_COORDS> (1lmoA1)
-0.3517 -4.7873 -4.8205 3.0872 4.0922 0.8766 -4.0482 -0.9495 1.8534 3.7559 0.7106 0.2866 2.3906 -4.1160 -1.5725 -2.8960 2.2814 3.8516 -0.8997 4.0936 2.8872 -1.4682 -1.3088 -1.5922 -0.6645 -5.2709 -2.5013 0.9697 4.8223 0.0472 -3.9568 0.4654 1.8224 2.6480 -0.0500 0.7411 0.1544 -3.1921 -3.1497 1.1184 2.8280 1.2385 2.3412 -2.1099 -0.3839 -1.9212 0.8271 0.6565 0.1354 0.7917 -0.4807 1.9781 -2.7566 -1.5971 -2.3799 2.2570 2.5312 -0.9366 2.7172 2.5445 -0.0525 -1.2771 -1.6857 -2.5028 0.8579 1.9562 2.0233 -0.7247 -0.4559 -0.5177 1.0619 0.7534 0.4717 -2.6966 -1.8255 -0.2884 2.5049 1.1857 0.5136 -0.5793 -0.4656 -0.3161 -4.4688 -3.3603 1.6129 3.9766 0.6588
-0.2415 -4.6630 -5.0459 1.5262 5.0339 0.3873 -4.6987 2.1073 1.6473 3.5412 0.2818 0.9168 2.7890 -3.7345 -1.8765 -2.3525 2.1286 4.3575 0.0416 3.4483 3.4352 -1.6159 -1.8566 -1.4248 0.9837 -5.4481 -3.1567 1.8114 2.9785 -0.7987 -4.1001 0.9971 2.2943 2.2017 -0.1654 1.0401 0.2838 -3.2248 -3.2463 -0.0020 3.2317 0.6301 2.2613 -2.0470 -0.3735 -2.1706 1.1174 0.8575 -0.2787 0.5562 -0.4550 2.0350 -2.5509 -1.6808 -2.0070 2.2507 2.9865 -0.4978 2.2742 2.8634 -0.2415 -1.5434 -1.5942 -2.5924 1.0815 2.2140 1.7515 -0.7240 -0.2912 -0.7702 0.8922 0.8272 0.5452 -2.8179 -1.8757 0.0023 2.0452 1.4501 0.2357 -0.7699 -0.3801 0.4045 -4.5179 -3.7060 1.1547 3.6388 -0.0019
-1.1270 -5.1149 -3.9953 2.8504 4.1191 0.1011 -4.8836 0.4056 2.2864 3.5969 0.3511 0.8565 2.6340 -3.9021 -1.6020 -2.5111 1.6204 3.9601 -0.2324 3.2876 3.3857 -1.4201 -1.3156 -2.0642 0.7308 -5.6104 -2.5866 0.8139 5.0504 0.9351 -4.1786 1.3130 1.4575 2.2332 -0.0335 0.9051 0.2795 -3.3977 -3.1468 1.1335 2.7443 0.9644 2.2324 -1.9903 -0.3644 -2.1062 1.2080 0.3331 -0.0354 0.8576 -0.7805 2.0474 -2.6126 -1.6262 -2.1320 2.0359 2.6578 -0.6254 2.1821 2.5922 -0.0051 -1.2655 -1.9692 -2.6963 1.0631 1.6258 1.8664 -0.6183 -0.4359 -0.6899 1.1263 0.4446 0.5514 -2.6859 -1.9176 -0.2429 2.3937 1.1420 0.3762 -0.5038 -0.7107 0.0536 -4.7586 -3.1522 1.4863 4.0514 0.7043
-0.6019 -4.8926 -4.6595 1.7535 4.7591 0.3472 -4.8446 0.8457 1.1555 3.8073 0.8374 0.1845 2.7139 -4.0862 -1.9248 -2.8771 2.4539 3.7056 -0.0542 2.8724 3.8923 -1.3050 -1.5641 -1.3030 -0.3808 -5.4571 -2.3482 -0.5591 4.1882 0.4756 -3.9461 1.9385 1.0537 2.9455 -0.1836 0.6600 0.2025 -3.3267 -3.0803 1.0523 2.7373 1.3333 2.6612 -2.1755 -0.5863 -1.7204 1.4374 0.3982 0.3443 0.6234 -0.3819 2.1949 -2.7706 -1.7913 -2.0234 2.4179 2.5742 -0.6490 1.9532 2.9987 0.0858 -1.4447 -1.5609 -2.5885 1.4749 1.5268 2.2579 -0.8131 -0.5286 -0.4807 0.8373 0.7525 0.6720 -2.8245 -1.8056 0.2500 1.6388 1.8206 0.7470 -0.7403 -0.3920 -0.2589 -4.6156 -3.2310 0.6015 3.8793 0.7147
-0.6621 -5.2703 -3.9162 3.0055 3.9281 1.4174 -4.5719 -0.5371 1.4703 3.8846 0.9204 -0.7257 2.7186 -4.0509 -1.4606 -2.9458 2.3001 3.8433 -0.7284 3.8965 2.9864 -1.4801 -1.8320 -0.7490 -0.0711 -2.9618 -4.0825 1.3223 4.2375 -0.2518 -4.2427 0.8320 1.6485 2.8344 0.3661 0.0506 -0.0784 -4.0082 -2.0042 1.1126 2.5120 1.2933 2.6364 -1.8587 -0.6783 -2.1093 0.8675 0.5937 -0.0439 0.6282 -0.5024 2.0397 -2.8063 -1.5552 -2.4379 2.2969 2.5174 -0.9497 2.5601 2.5653 -0.1572 -1.6684 -1.2271 -2.7475 0.9595 1.8657 2.0326 -0.5765 -0.8167 -0.6874 0.9277 0.7345 0.5726 -2.9997 -1.1935 -0.3152 2.3298 1.2074 0.5763 -0.6477 -0.3749 -0.2334 -3.9458 -3.3704 1.7265 3.6010 0.7147
-0.6800 -4.8235 -4.5083 3.0309 3.7376 0.1420 -4.3742 -0.4714 2.6280 3.8653 0.4574 0.0598 2.1694 -4.4076 -1.0195 -2.8580 2.3356 3.8110 -0.8205 4.0711 2.8097 -1.5968 -1.4764 -1.3800 1.2261 -3.4295 -4.1600 0.9798 4.9487 0.3128 -4.0556 0.6048 1.7621 2.6488 -0.0330 0.5989 -0.2694 -3.8163 -2.4133 1.0958 2.7615 1.0962 2.2767 -2.2210 -0.2117 -2.0020 0.8287 0.6019 0.0594 0.6710 -0.5289 1.7970 -3.0575 -1.2578 -2.3831 2.3009 2.4745 -0.9238 2.7022 2.4542 -0.1844 -1.5296 -1.5041 -2.5812 0.9094 1.9007 1.9571 -0.8545 -0.4629 -0.5904 1.0185 0.6885 0.2805 -2.9698 -1.3737 -0.3173 2.4654 1.0800 0.4480 -0.6904 -0.4099 0.2106 -3.9370 -3.6979 1.5913 3.9046 0.5075
-1.6012 -4.6494 -3.8397 2.9374 4.4053 0.7850 -3.9546 -0.9916 1.0798 4.1943 0.2138 0.0610 2.2263 -4.3929 -0.8713 -2.7305 1.8938 3.7819 -0.9004 3.9285 2.8918 -1.4749 -1.3789 -1.3601 0.4544 -3.4647 -4.1315 0.6952 5.1553 0.4511 -3.8823 0.3474 1.5449 2.8403 0.0674 0.4570 -0.3204 -3.9276 -1.9905 1.0975 2.9344 1.0302 2.4293 -2.1568 -0.2412 -1.8593 0.8482 0.4070 0.2501 0.7661 -0.6387 1.8616 -3.0571 -1.1900 -2.3069 2.0567 2.4379 -0.8875 2.5916 2.4207 -0.0692 -1.5033 -1.4874 -2.4290 0.7318 1.7056 2.1281 -0.7978 -0.5585 -0.4629 1.0897 0.5439 0.3451 -2.9320 -1.1817 -0.2842 2.5206 1.0226 0.6250 -0.5949 -0.4903 -0.3758 -3.9355 -3.3638 1.4543 4.2319 0.7243
-0.3758 -4.2717 -4.9210 1.6966 4.6574 0.6369 -4.4890 -0.2624 2.1043 3.8516 0.2927 0.2901 2.2704 -4.5571 -1.2444 -2.6899 2.6448 3.9679 -0.2120 3.8194 3.2174 -1.5247 -1.6458 -1.1686 1.0733 -2.5007 -4.2394 1.1569 3.5304 -1.4024 -4.0292 1.0647 1.9127 2.7559 -0.3909 0.8784 -0.1053 -3.7211 -2.6403 -0.1608 3.1802 0.4629 2.3418 -2.5034 -0.1269 -1.9025 0.8553 0.8737 0.1690 0.4284 -0.1894 1.8900 -3.1893 -1.2895 -2.1198 2.4514 2.6842 -0.6139 2.5336 2.7849 -0.1142 -1.6619 -1.3065 -2.5334 1.0971 2.1313 2.0234 -1.1187 -0.2212 -0.4831 0.8043 1.0196 0.3755 -3.0944 -1.4232 0.0494 2.1613 1.4713 0.5152 -0.9495 -0.1238 0.2903 -3.3863 -3.9168 0.8942 3.7324 -0.2222
-0.9216 -5.1115 -4.0657 1.6326 4.8668 0.4510 -4.9244 0.9366 1.5063 4.1732 0.4081 -0.0859 2.7696 -4.3163 -1.4693 -2.8127 2.6093 3.6082 0.0207 2.8400 3.7504 -1.3476 -1.9046 -0.9123 0.3251 -3.0792 -4.2182 -0.6478 4.1757 0.3529 -4.0009 1.9176 1.0598 2.9447 -0.0441 0.4579 0.0349 -4.1159 -2.1528 0.9905 2.6924 1.0970 2.7233 -2.2026 -0.4809 -1.8012 1.3765 0.3222 0.2243 0.4675 -0.4871 2.1669 -3.0310 -1.4979 -1.9943 2.4634 2.4615 -0.6307 1.9516 2.8677 0.0132 -1.7910 -1.2975 -2.6194 1.4823 1.4846 2.2259 -0.8713 -0.5849 -0.5565 0.7747 0.6580 0.6682 -3.1603 -1.2705 0.2256 1.6052 1.6665 0.7242 -0.8551 -0.3368 -0.1173 -3.9780 -3.5130 0.5113 3.8930 0.6286
-1.6476 -4.6317 -3.9156 1.0783 5.6585 0.6461 -3.9808 -0.5713 0.2710 4.3809 0.4108 -0.6701 1.9388 -4.2470 -0.7821 -2.8110 1.4465 3.6693 -0.4979 3.1245 3.6168 -1.2931 -0.9107 -1.6822 -0.5214 -5.4194 -1.9593 2.3066 3.8823 1.6683 -3.8711 0.6071 1.0565 3.1761 0.2039 0.0542 -0.0654 -3.2961 -2.7798 0.1484 3.4928 0.9069 2.4531 -2.0195 -0.3806 -1.7234 1.1862 0.2021 0.4926 1.0046 -0.6714 1.8452 -2.9238 -1.2978 -2.2067 1.8769 2.4571 -0.7267 2.0570 2.7203 0.1030 -1.1386 -1.7559 -2.4141 0.8137 1.3905 2.2976 -0.6693 -0.8035 -0.3357 1.1289 0.4673 0.3692 -2.6204 -1.5750 0.1120 2.1682 1.4623 0.8279 -0.3633 -0.6873 -0.7047 -4.5123 -2.7621 1.2697 4.2615 1.1342
-0.8471 -5.6008 -3.4881 2.2847 4.3924 0.3642 -4.8599 0.2246 0.7414 3.9188 1.1250 -0.5120 2.7096 -3.5465 -2.4035 -3.1062 1.9418 3.7264 -0.3822 2.8112 3.7745 -1.4789 -1.4249 -1.3487 -0.0108 -5.2814 -1.2741 2.4965 2.9975 2.2909 -4.2929 1.4714 1.1142 2.7944 0.4544 0.0303 -0.0763 -3.4828 -2.7522 0.4739 3.0705 1.1421 2.6441 -1.5570 -1.1912 -2.0648 1.4776 0.2729 0.0135 0.9366 -0.6992 2.0303 -2.3115 -2.2328 -2.3505 2.1629 2.5462 -0.8917 1.8834 2.8366 -0.1393 -1.2275 -1.7729 -2.8381 1.2419 1.4441 2.0662 -0.2588 -1.0867 -0.7431 1.0102 0.4964 0.5771 -2.5624 -1.8580 -0.0300 1.7952 1.5883 0.5848 -0.3610 -0.7580 -0.2721 -4.7949 -2.3694 1.7898 3.4129 1.3786
-1.1483 -4.6222 -4.3254 0.5513 5.4111 -0.3336 -4.3459 -0.3555 1.2771 3.6651 0.7606 -0.0958 2.2389 -4.6075 -1.0703 -2.6771 2.1629 3.8352 -0.1712 3.4723 3.3972 -1.4497 -1.5517 -1.1375 0.6844 -3.0974 -4.1863 2.1257 4.2170 1.0099 -3.9409 0.9924 1.4590 2.9511 -0.2641 0.5760 -0.2717 -3.9451 -2.2396 0.0484 3.2774 0.5536 2.4756 -2.4357 -0.2442 -1.7689 1.0023 0.4986 0.3564 0.5328 -0.4271 1.8871 -3.2441 -1.2595 -2.0641 2.2258 2.5577 -0.5593 2.2885 2.7289 -0.0514 -1.6588 -1.3491 -2.4577 1.0035 1.7446 2.1799 -1.0574 -0.4538 -0.3736 0.8716 0.7389 0.3691 -3.1130 -1.2418 0.1808 2.1179 1.4114 0.6847 -0.8425 -0.3066 -0.1382 -3.7912 -3.6010 1.0194 4.2501 0.4836
0.3162 -5.9135 -1.1607 3.0354 3.4656 1.7907 -5.0709 0.6476 0.8806 2.8694 -0.3245 1.1000 2.2269 -2.2655 -3.9339 -2.8939 2.3146 4.0037 -0.3212 3.4171 3.4414 -1.6210 -1.8047 -1.2083 1.0920 -5.0546 -3.2490 1.8474 3.4694 -0.2853 -4.4323 1.6902 1.5980 2.7047 -0.9818 -0.1419 0.5217 -3.5842 -1.5371 1.1602 2.0642 1.4298 2.0054 -0.4926 -2.3934 -2.3299 1.3131 0.5356 -0.3567 0.8123 -0.6174 1.8575 -1.8866 -2.6234 -2.3492 2.4177 2.6973 -0.8464 2.2790 2.7755 -0.3961 -1.2992 -1.6933 -2.9694 1.3493 1.8107 1.7592 -0.1882 -1.0226 -0.9372 1.0043 0.6691 0.4533 -2.3791 -2.3303 -0.2716 2.1833 1.3766 0.3060 -0.4549 -0.6473 0.6823 -4.8246 -2.1172 1.9582 3.0262 0.8523
-0.3065 -5.8342 -3.4388 1.7485 4.8343 0.4752 -5.0992 1.0993 0.8757 3.9803 -1.0114 -0.0481 2.8111 -2.5010 -2.9101 -2.9074 2.7779 3.9325 -0.0920 3.1323 3.6732 -1.3574 -2.3978 -0.4993 1.7477 -5.1936 -2.4089 2.6038 2.7298 1.2165 -4.3761 2.1513 1.4953 2.6311 -1.4228 0.0893 0.0527 -3.6166 -2.6808 0.3162 2.9946 0.8866 1.9304 -0.4925 -2.0553 -2.2781 1.5237 0.5676 -0.3900 0.5753 -0.4418 1.6364 -1.7552 -2.6445 -2.2403 2.6565 2.6870 -0.8219 2.1821 2.9209 -0.3963 -1.6643 -1.2401 -2.9767 1.6662 1.8009 1.7355 -0.4458 -0.6462 -1.0094 0.9158 0.7893 0.6387 -2.5908 -1.8520 -0.1112 1.8263 1.6247 0.2747 -0.6764 -0.2927 0.6243 -4.8696 -2.7784 1.6311 3.4066 0.9022
0.9599 -4.1670 -5.1846 0.4067 5.2168 -0.7452 -4.3401 1.9103 1.2047 3.4054 0.6761 -0.5181 1.1526 -4.6816 -0.3479 -2.2595 1.9012 4.1545 0.1070 3.3487 3.4944 -1.6504 -1.5221 -1.2213 0.5201 -5.5033 -3.2545 1.4137 4.8954 1.3947 -3.8007 0.7964 1.8986 2.8607 -0.3439 0.3055 0.3109 -3.1878 -3.1376 -0.1378 3.3513 0.6034 2.0564 -2.5442 -0.0995 -1.7580 0.9678 0.6571 0.2754 0.5622 -0.4919 1.4403 -3.4492 -0.9971 -1.8305 2.0805 2.8151 -0.3208 2.2068 2.7822 -0.2608 -1.5605 -1.4912 -2.2930 0.9024 1.9729 1.9599 -1.2001 -0.5497 -0.3408 0.9122 0.7312 0.1651 -2.9988 -1.7032 0.2335 2.1718 1.3635 0.5022 -0.8355 -0.4148 0.5773 -4.3870 -3.7555 0.6453 4.4813 0.5341
-1.6943 -4.9967 -3.0558 1.6202 4.9795 1.2865 -4.2988 0.9418 -0.4638 4.3977 0.5702 -1.2901 2.6530 -4.2635 -1.3831 -3.1814 1.7092 3.4639 -0.4553 2.4456 4.0280 -1.1836 -1.6024 -0.3247 -0.2007 -3.2751 -3.7600 -0.1179 3.9618 0.0184 -3.9215 1.7748 0.6219 3.3383 0.2969 -0.3887 -0.1762 -3.9920 -1.5464 1.0064 2.7310 1.6540 2.8872 -2.0056 -0.8351 -1.5993 1.5279 0.1922 0.5223 0.7297 -0.4500 2.0817 -2.9698 -1.5126 -2.2382 2.0302 2.4523 -0.8592 1.6438 2.9394 0.0613 -1.5961 -1.0064 -2.6000 1.2905 1.1753 2.3771 -0.6877 -1.0249 -0.3930 0.9179 0.6061 0.6702 -2.9848 -0.9386 0.1889 1.5562 1.8487 1.0120 -0.5984 -0.3625 -0.6145 -3.9837 -2.8503 0.7175 3.8489 0.9064
-1.3440 -5.3564 -3.2427 2.0958 4.5933 1.8317 -4.4524 0.7444 -0.3096 4.3063 0.9700 -1.2765 2.7450 -3.9231 -2.1987 -3.3236 1.8940 3.2163 -0.5951 2.2055 4.0316 -1.1268 -1.4782 -0.8212 -1.1825 -4.7487 -0.9367 -0.1782 4.2804 1.1764 -3.8942 1.8544 0.3784 3.4046 0.3415 -0.3806 -0.0431 -3.5112 -2.5445 1.1090 2.4511 1.8243 2.9475 -1.8199 -1.2220 -1.5382 1.6690 0.0623 0.5953 0.8687 -0.5291 2.1833 -2.6208 -2.1148 -2.2684 2.0976 2.2916 -0.9895 1.5195 2.8618 0.1384 -1.3441 -1.4525 -2.5887 1.4037 0.9825 2.4478 -0.4897 -1.1985 -0.3878 0.9561 0.4809 0.7464 -2.7267 -1.6249 0.1294 1.3939 1.8413 1.0525 -0.4758 -0.6000 -0.8568 -4.5288 -2.0978 0.8679 3.7802 1.5709
-1.3736 -5.2835 -2.9379 2.4716 3.9521 1.9577 -5.0793 1.1279 0.7170 4.4191 1.0664 -1.1694 2.9193 -3.7492 -1.9413 -3.4002 1.1328 3.2094 -0.7039 1.3848 4.0551 -1.1418 -1.2920 -1.1596 -1.3351 -4.3087 -0.7589 1.1066 3.8129 0.0008 -4.0100 2.0381 0.5052 3.2750 0.6944 -0.4189 0.1255 -3.5335 -2.4026 0.4094 2.7821 1.9442 2.9860 -1.5494 -1.1503 -1.6746 1.8290 0.0640 0.4448 1.0446 -0.6960 2.3007 -2.4710 -1.9968 -2.3821 1.6343 2.3608 -1.0515 1.0070 2.7340 0.1943 -1.2105 -1.6263 -2.7235 1.3568 0.9070 2.4283 -0.2390 -1.2530 -0.5029 1.0826 0.3537 0.8404 -2.5889 -1.5731 0.0482 1.3896 1.7447 0.9953 -0.2655 -0.7463 -0.8719 -4.3389 -1.8936 1.2859 3.4946 1.1705
-1.2894 -5.3325 -2.8915 2.2541 4.2049 1.3235 -5.1836 1.8005 1.1955 4.0587 1.0522 -1.5645 3.0448 -3.9214 -1.5590 -3.3172 1.8575 3.4430 -0.5336 1.8393 4.0779 -1.1162 -1.8439 -0.3804 -0.2370 -3.3619 -3.7366 0.4298 3.6162 -0.0929 -4.0089 2.3681 0.6357 3.1037 0.6722 -0.5852 0.2227 -4.0888 -1.5763 0.9275 2.3226 1.7874 2.9568 -1.6623 -0.9801 -1.7755 1.7346 0.1417 0.2214 0.7187 -0.6135 2.2874 -2.7244 -1.6539 -2.3126 2.0731 2.4637 -1.0682 1.3184 2.8773 0.0978 -1.6607 -1.0910 -2.8074 1.5803 1.1122 2.2530 -0.4378 -1.1576 -0.6899 0.8772 0.4569 0.9143 -2.9400 -1.0342 -0.0312 1.2413 1.7753 0.8970 -0.5230 -0.4745 -0.3879 -4.1439 -2.8061 1.0895 3.3634 0.9070
-1.8883 -5.0403 -2.9409 1.8983 4.9522 0.4677 -4.1136 0.5652 -0.5635 3.2665 1.3832 -1.1088 2.6426 -4.4331 -1.4889 -3.0619 1.6323 3.4149 -0.4763 2.8475 3.7842 -1.0591 -1.7979 -0.1210 -0.3931 -3.3839 -3.7932 0.2734 4.9679 2.2081 -3.8907 1.3345 0.6062 3.4610 0.0887 -0.5629 -0.1866 -4.1181 -1.5904 0.5438 3.0699 0.9081 2.9226 -2.1806 -0.9600 -1.5405 1.2540 0.1510 0.6194 0.5790 -0.4281 2.0887 -3.1298 -1.6188 -2.2235 1.9915 2.3256 -0.7738 1.9266 2.7624 0.0973 -1.7401 -0.9438 -2.5122 1.0543 1.1666 2.4127 -0.8589 -1.1064 -0.2740 0.8218 0.6442 0.6985 -3.1304 -1.0077 0.2633 1.8468 1.6443 1.0985 -0.7569 -0.3449 -0.7489 -4.0728 -2.8466 0.8558 4.3275 1.3428
-1.4704 -4.6914 -3.4447 2.3937 4.4810 1.3429 -4.5633 0.7085 0.0463 3.5335 0.7393 -2.4530 2.6542 -4.2190 -0.7878 -3.1312 2.0852 3.5315 -0.3180 2.6359 3.9031 -1.2905 -1.7216 -0.1743 0.8387 -4.1459 -3.6618 0.0300 4.4249 1.0220 -4.0657 1.8261 0.7695 3.0181 0.4692 -1.1574 -0.1824 -4.0442 -1.5687 1.1804 2.4613 1.5097 2.7637 -1.8852 -0.8854 -1.7662 1.6323 0.1972 0.2538 0.7031 -0.5849 2.0426 -3.0380 -1.2902 -2.2277 2.2768 2.4529 -0.8505 1.8178 2.8868 -0.1029 -1.6838 -0.9517 -2.6893 1.4581 1.2634 2.0841 -0.7040 -1.2876 -0.5738 0.9502 0.5319 0.5814 -3.0376 -0.8528 0.1146 1.5275 1.7536 0.8250 -0.5887 -0.4529 -0.1405 -4.2466 -2.9312 1.0585 3.8089 1.2734
-1.3307 -5.6836 -2.8851 2.0634 4.6515 1.1096 -4.7616 1.1069 -0.0275 3.8519 1.1353 -1.8061 2.7447 -3.6561 -2.3021 -3.1763 2.4313 3.5971 -0.4004 2.4675 3.9731 -1.3792 -1.7190 -0.7309 0.8941 -5.7030 -2.0333 2.2158 3.0464 2.8688 -4.2402 2.0001 0.9452 2.8587 0.7905 -0.8518 -0.1478 -3.6680 -2.4899 0.5051 2.8826 1.2945 2.6679 -1.5026 -1.4472 -2.0088 1.5271 0.2724 0.0200 0.8169 -0.6074 1.9715 -2.4695 -2.2224 -2.2979 2.3615 2.4891 -0.9797 1.7451 2.9054 -0.1750 -1.4671 -1.4347 -2.8872 1.4957 1.3917 1.9663 -0.2683 -1.4549 -0.7685 0.8944 0.5727 0.5973 -2.7720 -1.6224 -0.0332 1.6053 1.7157 0.6687 -0.4436 -0.6832 -0.0698 -5.0423 -2.4017 1.6310 3.4370 1.8652
-1.6620 -5.3764 -1.7984 2.2812 4.7053 1.4607 -4.3429 -0.4649 0.1708 3.0168 1.9653 -1.5392 2.8691 -3.6875 -2.4761 -3.4152 1.9576 3.2805 -0.8608 3.3222 3.3704 -0.8650 -1.8595 -0.0756 -1.3387 -3.4207 -3.1328 2.5520 2.5564 2.4653 -4.1612 0.8394 0.7026 3.1962 0.7153 -0.8940 0.2713 -4.0484 -1.5785 0.6870 2.9749 1.1337 2.9348 -1.5149 -1.6201 -1.8808 1.1614 0.1045 0.3115 0.8017 -0.6099 2.1115 -2.5159 -2.2148 -2.5465 2.0986 2.1696 -1.1119 2.1274 2.6567 0.1256 -1.5921 -1.0574 -2.7429 0.9438 1.2119 2.2287 -0.2857 -1.4876 -0.5486 0.8934 0.5082 0.9811 -2.8309 -1.2524 -0.0632 1.8388 1.5916 1.0096 -0.4397 -0.5875 -0.9192 -4.1595 -2.2524 1.8823 3.2947 1.7503
-1.5307 -5.3786 -2.4877 2.4376 4.2449 2.0033 -4.2617 1.1114 -0.7688 3.3057 1.9131 -1.1190 2.6588 -3.8095 -2.1146 -3.2783 0.7800 3.1063 -0.6395 1.2200 4.0774 -1.1860 -1.1428 -1.0575 -1.2278 -4.2833 -0.3875 0.6686 3.9920 0.4185 -3.8937 1.7200 0.4578 3.4138 0.5885 -0.6212 -0.1412 -3.4684 -2.2809 0.8575 2.5105 2.1964 2.9192 -1.6300 -1.3127 -1.5317 1.8919 0.1178 0.5841 1.1197 -0.7084 2.1207 -2.4950 -2.1206 -2.2780 1.4293 2.3391 -0.9197 0.8883 2.7313 0.1229 -1.1193 -1.6006 -2.5347 1.2071 0.8619 2.4333 -0.2905 -1.3627 -0.3148 1.2286 0.3610 0.6983 -2.5266 -1.5810 0.2041 1.2898 1.7827 1.0347 -0.2276 -0.7668 -0.9580 -4.3360 -1.5825 1.2365 3.5727 1.4190
-0.6357 -5.8860 -2.2147 3.0879 2.7787 2.3401 -4.7212 2.6058 0.6870 3.0070 1.7037 -2.6948 3.1770 -3.3852 -2.1714 -3.2495 1.7639 3.7414 -0.6490 2.9265 3.5740 -0.7681 -2.0361 0.1968 -0.4311 -3.7883 -3.3389 1.7115 3.8052 0.6770 -4.5300 1.2684 1.1251 2.5066 1.2087 -1.4643 0.5883 -4.1025 -1.2692 1.0664 1.7766 1.6055 2.7651 -1.1377 -1.6775 -2.3080 1.1003 0.2695 -0.2374 0.7060 -0.7258 2.1814 -2.3781 -2.0664 -2.5742 2.0006 2.5164 -1.0846 1.8696 2.7344 0.0740 -1.7109 -0.8986 -3.0725 1.0236 1.4660 1.7920 -0.0996 -1.7158 -0.9291 0.8154 0.5132 1.1403 -2.7852 -1.0350 -0.3548 1.9126 1.4042 0.7178 -0.3501 -0.6642 -0.1628 -4.4742 -2.3603 1.8926 2.8683 1.4465
-0.1199 -5.4523 -4.0413 2.6479 3.4081 1.7753 -5.0433 2.5528 0.8869 2.5246 1.8667 -2.2059 2.9655 -3.6042 -2.0797 -2.9493 2.6138 3.7306 -0.3608 1.5505 4.1639 -1.1945 -2.0513 -0.3181 0.8652 -5.8337 -1.8981 0.4011 3.7758 1.0616 -3.7776 3.1769 1.0346 2.6237 0.9674 -1.1112 0.0294 -3.7285 -2.4311 1.0622 1.6597 1.7704 2.6846 -1.4063 -1.3516 -1.8320 2.0087 0.3185 -0.1750 0.6918 -0.6654 2.0933 -2.4848 -2.0614 -2.0309 2.4360 2.6665 -1.0938 1.2931 2.9836 -0.1413 -1.6746 -1.1893 -2.7698 2.1078 1.3840 1.8444 -0.2716 -1.4677 -0.9731 0.8834 0.4931 0.7393 -2.8888 -1.4767 -0.1951 0.9515 1.8082 0.6137 -0.4915 -0.6072 0.3240 -5.0512 -2.6704 1.2376 2.9949 1.4978
-1.6466 -5.1581 -1.0343 3.3438 2.7048 2.2819 -4.6936 0.7576 -0.5964 4.0485 1.2235 -2.0650 2.4894 -3.4531 -2.8346 -3.4146 1.4097 3.2880 -0.8650 2.6299 3.7196 -1.2469 -1.4190 -0.6205 0.7311 -5.3441 -0.8807 1.4635 4.1720 2.3792 -4.3025 1.5943 0.4795 3.0595 0.8796 -1.1085 -0.2021 -3.5899 -2.0844 1.1546 1.9406 1.7846 2.6748 -1.3164 -1.9111 -1.9929 1.5435 -0.0695 0.1926 1.1404 -0.7991 1.8065 -2.2375 -2.5672 -2.5934 1.9101 2.2458 -1.1367 1.7589 2.6350 -0.1504 -1.1945 -1.4915 -2.9223 1.1878 0.9504 2.0509 -0.0440 -1.7572 -0.6773 1.1550 0.3193 0.6207 -2.4914 -1.6547 -0.2393 2.0760 1.4467 0.7931 -0.1487 -0.8998 -0.2404 -4.7333 -1.3108 1.8948 3.0462 2.1549
0.0316 -5.9917 -2.2104 3.4777 1.5356 1.5861 -5.1693 0.8174 0.5852 1.2935 2.4055 -2.5007 3.2598 -2.9938 -2.4798 -3.0652 2.2760 3.8287 -0.3396 3.0161 3.5102 -0.5516 -2.0737 0.2823 -0.6992 -3.8475 -2.9682 2.1051 3.4903 1.5442 -4.4813 1.8140 1.3220 2.1007 1.4958 -1.7714 0.9016 -4.0029 -1.2837 1.1162 1.3857 1.6402 2.6196 -0.8024 -1.9965 -2.3609 1.3150 0.3871 -0.4556 0.6813 -0.7429 2.1580 -2.1181 -2.2911 -2.4085 2.3100 2.5722 -0.9475 1.9758 2.7596 0.1226 -1.6812 -0.9033 -3.0735 1.3371 1.6184 1.5270 0.1048 -1.9243 -1.0268 0.8283 0.5529 1.2962 -2.6178 -1.1412 -0.2456 1.8211 1.4188 0.6173 -0.2516 -0.7550 0.0237 -4.4961 -2.2210 2.1739 2.2670 1.5818
-1.0779 -5.6839 -1.4426 3.4699 2.0796 1.6479 -4.9262 1.3788 -0.3226 2.5645 2.3751 -1.8914 2.5373 -3.2217 -3.0885 -3.3478 1.6095 3.5239 -0.6207 2.3753 3.8566 -1.1229 -1.6651 -0.3983 1.2310 -5.2292 -0.9939 1.8995 3.5590 2.6613 -4.3578 2.0405 0.7943 2.8340 1.1001 -1.3318 -0.0602 -3.6489 -2.1149 1.1610 1.5348 1.7716 2.5794 -1.0966 -2.1411 -2.1161 1.6581 0.0824 -0.0323 1.0776 -0.7981 1.7517 -2.0910 -2.7376 -2.5222 2.0207 2.4464 -1.0865 1.6384 2.7381 -0.1833 -1.2944 -1.3989 -3.0278 1.4074 1.1505 1.8453 0.0937 -1.8788 -0.8355 1.0874 0.3715 0.6948 -2.4894 -1.7219 -0.2160 1.8885 1.5144 0.6950 -0.1471 -0.9004 0.1683 -4.8553 -1.4807 2.1016 2.4980 2.0823
-0.3599 -5.4757 -0.0406 3.2927 2.1032 2.6647 -4.8014 1.2990 -0.4447 3.3220 1.5660 -2.8231 2.4653 -3.3165 -2.9228 -3.3534 1.4885 3.5275 -0.6762 2.4751 3.8407 -1.4127 -1.4604 -0.6787 0.5124 -5.3609 -2.2547 1.9331 3.8156 1.7027 -4.3881 1.8550 0.7933 2.7068 1.1690 -1.6050 0.5047 -3.4460 -0.9265 1.1481 1.6264 1.7736 2.4909 -1.1853 -1.9505 -2.1196 1.6613 0.1014 -0.0331 1.1476 -0.7969 1.7195 -2.1444 -2.6548 -2.5507 1.9600 2.4582 -1.0933 1.6672 2.7526 -0.3225 -1.1729 -1.5310 -3.0151 1.3280 1.1568 1.7672 0.0351 -1.9198 -0.8260 1.1315 0.3784 0.3942 -2.4474 -1.9634 -0.2369 1.9402 1.5253 0.6092 -0.1147 -0.9493 0.2577 -4.7768 -1.2080 2.0650 2.6324 1.9948
-0.1545 -5.8691 -0.7057 2.5513 3.4906 2.4248 -4.7964 2.4655 -0.1706 3.0183 1.6734 -2.9915 2.6322 -3.1152 -3.0126 -3.3489 2.0207 3.7084 -0.5676 1.5217 4.1106 -1.1140 -1.8203 -0.2618 0.8744 -5.3105 -2.7811 2.6341 1.1921 1.7797 -4.1559 2.8639 1.0326 2.3883 1.3692 -1.7529 0.6888 -3.6808 -1.1228 0.6130 2.3386 1.6843 2.4469 -0.9958 -2.0434 -2.0541 2.0338 0.3083 -0.2538 1.0114 -0.7432 1.7605 -2.0495 -2.6903 -2.3933 2.1763 2.6732 -1.2324 1.2282 2.8974 -0.2860 -1.3639 -1.3143 -3.0358 1.8903 1.3279 1.5734 0.1169 -1.9575 -1.0593 1.0202 0.4238 0.5176 -2.5031 -1.9349 -0.2665 1.1907 1.7198 0.5426 -0.1607 -0.8746 0.5151 -4.9407 -1.6675 1.9621 2.2062 1.9340
-0.7371 -5.6399 -1.7156 3.1725 2.3748 2.1534 -5.1279 1.9149 0.2590 1.9034 2.7628 -2.1003 2.8658 -2.8645 -2.8945 -3.2158 1.9512 3.7412 -0.3626 1.7004 3.9513 -1.1611 -1.6324 -0.5898 1.4627 -5.0430 -1.0002 2.3614 0.1365 1.9735 -4.2719 2.6392 1.1295 2.4341 1.5920 -1.5029 0.2039 -3.5253 -2.2326 0.9239 1.9188 1.5413 2.5600 -0.6902 -2.1098 -2.1178 2.0841 0.2872 -0.3454 1.1422 -0.9082 1.9194 -1.8269 -2.6817 -2.3322 2.1628 2.6518 -1.1159 1.2826 2.8301 -0.1957 -1.2084 -1.5394 -3.0243 1.8181 1.3494 1.6474 0.3944 -1.9879 -1.0909 1.1053 0.2945 0.8218 -2.3163 -1.7471 -0.2714 1.1253 1.5786 0.5255 0.0279 -1.0244 0.4372 -4.7243 -1.5919 2.1309 1.3378 1.8853
-0.2857 -5.7987 -1.9368 3.1981 0.3732 2.1622 -5.5036 1.8145 1.1791 2.5135 2.4346 -3.0654 3.0806 -2.8549 -2.6927 -3.4062 1.8000 3.4689 -0.5920 1.9708 3.8129 -0.9503 -1.6026 -0.4418 0.5297 -4.6226 -0.0244 2.2689 2.5629 2.3853 -4.3498 2.5372 0.7843 2.3925 1.7164 -1.8477 0.3910 -3.5342 -2.0772 0.9237 0.8037 1.6744 2.6650 -0.6229 -2.1576 -2.1961 1.9305 0.0362 -0.2547 1.1918 -0.9881 2.0850 -1.8459 -2.6013 -2.5169 2.1277 2.4130 -1.1967 1.4316 2.6489 -0.0523 -1.2120 -1.4698 -3.1247 1.7034 1.0892 1.6897 0.4115 -2.1401 -1.0291 1.1266 0.2013 0.9977 -2.2993 -1.6365 -0.2730 1.5855 1.4505 0.6344 0.0917 -1.0955 0.2602 -4.6062 -1.2204 2.1010 1.3855 2.0889
0.4317 -5.5512 -0.1819 3.1649 0.4059 1.9846 -5.4868 2.5378 1.5239 2.6496 1.9941 -3.1544 2.7576 -2.8927 -3.1281 -3.3209 2.2121 3.6027 -0.5088 2.1180 3.8075 -1.3129 -1.7931 -0.6827 1.5588 -5.2502 -2.2575 2.1706 2.5068 2.5198 -4.2771 2.9372 0.9021 2.1585 1.5639 -1.8909 0.9586 -3.3801 -1.0066 0.8499 0.7900 1.6630 2.4008 -0.7972 -2.1542 -2.2978 1.9496 0.1099 -0.4752 1.0318 -0.9574 1.8016 -1.8997 -2.8121 -2.4629 2.3706 2.4844 -1.2079 1.5608 2.7054 -0.3399 -1.3298 -1.5966 -3.1868 1.9352 1.2229 1.4519 0.2527 -2.1107 -1.1874 1.0593 0.2777 0.5967 -2.4506 -2.0509 -0.3436 1.5763 1.4499 0.3859 -0.0925 -1.0839 1.0431 -4.7334 -1.2730 2.0278 1.3685 2.0870
-0.5052 -5.7137 -1.9224 2.8760 2.2065 2.1163 -5.0268 3.3598 1.0206 2.9817 2.3728 -2.5501 3.0097 -2.8251 -2.7880 -3.4269 1.7304 3.4776 -0.9497 0.3494 3.7236 -1.1454 -1.6020 -0.7238 1.0491 -4.7724 -0.3728 2.1133 -0.0495 2.3029 -3.6508 3.6132 1.2538 2.4508 1.6426 -1.4568 0.3462 -3.5207 -2.2049 0.6119 1.6338 1.7302 2.6425 -0.6437 -2.0456 -1.8501 2.4329 0.2578 -0.3606 1.1856 -1.0714 2.0448 -1.7942 -2.6383 -2.3573 1.9342 2.5690 -1.5313 0.6702 2.4755 -0.1389 -1.1843 -1.6325 -2.9102 2.2971 1.2003 1.7169 0.4366 -1.9971 -1.1783 1.1885 0.0884 0.9105 -2.2760 -1.7478 -0.4851 0.7615 1.3798 0.5299 0.0794 -1.1137 0.3852 -4.6363 -1.3948 1.8482 1.1233 2.0641
0.4202 -5.2595 -0.2768 2.8973 -0.4003 1.5777 -5.4898 2.4073 1.7920 1.9559 2.6591 -2.3230 2.7379 -2.5656 -3.4923 -3.0547 2.6493 3.7185 -0.2558 2.3041 3.6919 -1.3217 -1.9447 -0.9108 1.8989 -5.1815 -2.1514 2.4634 1.9002 2.0552 -4.3342 2.8704 1.1141 2.0925 1.5924 -1.3972 1.1870 -3.1997 -1.1723 0.6869 0.4365 1.7183 2.3689 -0.6341 -2.1969 -2.4069 1.8386 0.2304 -0.6566 0.9169 -0.9288 1.7790 -1.6523 -2.9934 -2.3117 2.5454 2.5148 -1.1047 1.6711 2.7468 -0.3522 -1.3470 -1.7482 -3.1743 1.9456 1.4238 1.4021 0.3814 -1.9736 -1.2971 0.9392 0.3479 0.6678 -2.3696 -2.2364 -0.3445 1.4204 1.4536 0.2838 -0.1387 -1.0801 1.2464 -4.5699 -1.3147 2.0165 0.7852 1.8111
0.1063 -6.0072 -2.1536 2.9946 2.1144 1.8119 -4.3530 3.8649 0.4268 1.0493 2.7266 -2.5474 2.9750 -2.6657 -2.8620 -3.0918 2.0199 3.8697 -0.6439 0.5519 3.9361 -1.0838 -1.9147 -0.4016 1.9302 -4.9726 -1.0108 2.1770 -0.0755 2.3032 -3.4814 3.7589 1.5416 1.8265 1.7723 -1.8402 0.3960 -3.6561 -2.1639 0.6911 1.5885 1.6421 2.3448 -0.5197 -2.1992 -1.8776 2.3880 0.4491 -0.7609 0.9103 -0.9836 1.8813 -1.7790 -2.6760 -2.1279 2.1038 2.8322 -1.3657 0.7971 2.7453 -0.2599 -1.4162 -1.4430 -2.8240 2.3972 1.5134 1.2643 0.3996 -2.1241 -1.3222 1.0851 0.3033 0.8889 -2.3831 -1.6881 -0.4680 0.7309 1.5176 0.2813 -0.0502 -1.0529 0.9216 -4.8418 -1.6956 1.9318 1.0725 1.9496
2.3499 -5.7431 -1.9265 3.5450 0.6854 1.3697 -5.1683 1.0231 1.7113 -1.7213 1.5427 -2.7893 1.9593 -1.5462 -4.1522 -2.4827 3.5080 3.5621 0.2258 3.6079 2.6774 1.6220 -2.2319 0.5910 0.2824 -4.5661 -2.1364 2.4638 2.7604 0.9006 -4.2798 2.1280 1.7120 -0.8260 1.3148 -1.7136 2.2852 -3.3824 -2.0099 1.2484 1.0197 1.8586 0.6890 -0.1433 -2.7820 -2.3585 0.9287 0.9980 -0.7887 -0.7260 0.5159 1.0912 -1.4853 -3.0307 -2.0105 2.8473 2.3983 -0.5713 2.4363 2.6136 0.8997 -1.9227 -0.5878 -2.8951 1.6529 2.0989 -0.3302 -0.1124 -1.7854 -1.0869 0.3846 1.3367 1.8009 -2.0306 -1.8015 -0.0681 1.5071 1.5156 0.2451 -0.5584 -0.4453 1.5024 -4.5156 -2.0335 2.3776 1.6171 1.3345
0.4410 -5.9556 -2.3723 2.6653 0.0147 1.8998 -3.6638 4.6688 1.6476 1.1633 2.9029 -2.0167 3.3881 -2.4036 -2.6219 -2.8461 2.4643 3.6630 -1.4245 -0.0024 3.7005 -1.1295 -2.0639 -1.0204 0.5849 -4.7015 -0.3449 1.2595 1.9336 2.1032 -2.3014 4.3026 1.4895 1.8051 1.8255 -1.3568 0.8430 -3.6212 -2.3916 0.3347 -0.1424 1.5918 2.5037 -0.3443 -1.9691 -1.2325 2.4785 0.3916 -0.9121 0.7252 -1.1958 2.2207 -1.5941 -2.5964 -1.8769 2.1349 2.6810 -1.8452 0.6325 2.5093 -0.1247 -1.4545 -1.8155 -2.2267 2.7996 1.3606 1.3721 0.5256 -1.9993 -1.2893 1.0957 0.1101 1.1208 -2.3199 -1.8330 -1.0444 0.1824 1.3016 0.2290 -0.1074 -1.2247 0.6325 -4.7095 -1.5703 1.3534 0.7334 1.8793
2.3676 -4.5620 0.2302 2.5395 -0.6245 2.7026 -5.1466 2.5806 0.5725 1.3436 2.8164 -3.0680 2.7062 -2.5160 -3.3822 -2.9109 2.0821 3.9514 -0.1023 1.6458 3.7938 -1.2941 -1.7540 -0.7841 0.3660 -4.9099 -1.0294 2.6744 0.9583 0.9160 -4.1581 2.9925 1.5014 1.7609 1.9199 -2.0494 1.3112 -2.7885 -0.9306 0.6182 0.0474 1.4884 2.2162 -0.3801 -2.5164 -2.2812 2.0671 0.3788 -0.7381 1.0930 -1.0148 1.6869 -1.5900 -3.0467 -2.1660 2.2205 2.7526 -1.0073 1.2550 2.7731 -0.4066 -1.2190 -1.7463 -3.0605 1.9501 1.5619 1.1676 0.5666 -2.3554 -1.3032 1.0273 0.2913 0.6738 -2.2301 -2.1048 -0.2857 1.1797 1.4347 0.2140 0.0831 -1.2777 1.2360 -4.1342 -0.6495 1.9784 0.2229 1.6065
2.3063 -5.7922 -1.3652 2.8021 1.0633 0.3733 -4.5978 3.2077 0.9842 -2.1339 0.9947 -2.7998 2.7351 -1.5210 -3.6058 -2.1307 3.5235 3.6311 0.1458 1.9090 4.1843 1.0205 -2.3018 0.7891 0.6843 -4.5769 -2.6189 1.2470 2.7713 0.9531 -3.2108 3.5110 0.9524 -0.8570 1.1176 -2.1974 2.3866 -3.4318 -1.5148 1.0471 0.6466 1.8955 0.9812 -0.2344 -2.7556 -1.8012 1.6390 0.5356 -1.2007 -0.6560 0.1509 1.5393 -1.5394 -2.8389 -1.4807 2.7657 2.6244 -0.8493 1.5395 3.2496 0.6341 -2.0064 -0.5435 -2.4811 2.3423 1.5668 -0.2618 -0.2636 -2.0584 -1.3069 0.4224 1.0492 1.8454 -2.0882 -1.4528 -0.3546 0.5229 2.2294 0.0015 -0.6268 -0.6034 1.6796 -4.5478 -1.9044 1.6106 1.6098 1.0902
3.1310 -5.3046 -1.8470 3.4879 1.4968 1.7490 -5.0106 2.0198 3.1769 -2.8518 0.3270 -2.3462 2.1919 -1.1756 -4.0014 -2.2048 3.5856 3.5805 0.4122 3.4944 2.4529 1.5152 -2.0301 0.6595 0.9967 -4.4911 -2.5358 2.2774 1.6736 -0.3029 -4.2446 2.2054 1.9978 -1.5603 0.7675 -1.9581 2.6365 -2.9916 -1.8352 1.2090 0.8664 1.6000 0.3969 -0.2113 -2.8569 -2.4724 0.9069 1.1238 -1.0174 -0.8012 0.4593 1.1898 -1.3824 -3.0160 -1.8840 2.8574 2.4050 -0.4559 2.3726 2.5019 0.8422 -1.8705 -0.5783 -2.8439 1.6938 2.2516 -0.6499 -0.4360 -1.9161 -1.1932 0.3091 1.3265 1.8547 -1.7772 -1.7049 -0.1170 1.3963 1.3848 -0.0316 -0.6295 -0.5421 2.1184 -4.2376 -2.1125 2.2778 1.3662 0.8839
1.6506 -5.7483 -1.4477 3.2791 0.4221 3.5075 -4.9617 1.2670 2.4806 -0.4455 2.6758 -2.7464 1.5297 -1.8119 -4.1426 -2.3200 4.0282 1.6242 0.4134 3.5375 1.0564 -0.0561 -2.5260 0.3445 3.0581 -4.0659 -2.3931 3.0142 1.5235 1.4050 -3.9763 1.4895 1.4848 0.0291 1.8778 -1.6769 0.7824 -3.6593 -2.1577 1.1334 0.8894 2.6186 0.7700 -0.0422 -2.8299 -2.0084 0.4577 2.3823 -1.3486 0.0335 0.1494 0.5977 -1.4197 -3.1465 -1.8093 2.7253 1.4160 -0.3637 2.6448 1.8401 -0.2785 -1.8617 -0.8897 -2.6483 1.7128 2.1706 -0.2616 0.4186 -1.9618 -0.9220 0.1923 1.5002 0.8036 -2.2429 -1.8819 0.1667 1.2481 1.6116 -0.2485 -0.3650 -0.6561 1.9340 -4.4087 -2.0452 2.4865 1.0076 2.3835
0.7106 -6.0530 -2.6392 2.4291 -0.3762 1.4870 -3.3870 4.9802 1.1237 1.3176 2.6166 -2.6450 3.1295 -2.1469 -2.8024 -2.3269 3.2695 3.7471 -1.2939 0.6547 4.1484 -0.9829 -2.4926 -0.3873 2.2399 -4.9865 -1.1453 1.4333 1.7242 2.0351 -2.0524 4.5007 1.1559 1.0187 1.8283 -1.5057 0.7574 -3.7007 -2.3957 0.1186 -0.1938 1.9325 2.0087 -0.2512 -2.0343 -1.3049 2.3758 0.3666 -1.3912 0.2814 -0.8026 1.8581 -1.5398 -2.6170 -1.5939 2.5957 2.7371 -1.7783 1.1021 2.8999 -0.3196 -1.7649 -1.4089 -2.0987 3.0069 1.3655 0.7486 0.4103 -1.9535 -1.5119 0.9812 0.4117 1.0026 -2.4373 -1.7315 -1.2269 0.2968 1.7363 -0.1226 -0.3323 -0.9549 1.3318 -4.8745 -1.9606 1.2866 0.5253 1.8370
2.2416 -5.8719 -2.5503 2.9076 1.5874 -0.0866 -4.9822 2.0712 1.2095 -1.4389 1.8467 -2.6769 1.5954 -1.6731 -3.9716 -2.0810 3.9186 3.5127 0.5752 2.9392 3.5250 0.8464 -2.7247 0.6474 3.4324 -3.8205 -2.8187 2.7885 0.6454 2.1048 -3.9053 2.9595 1.4732 -0.8680 1.3682 -1.4709 1.2360 -3.7890 -2.0490 0.8811 1.5689 1.1423 0.4777 -0.2261 -2.5335 -2.2592 1.3227 0.9744 -1.1664 -0.7589 0.7098 0.6651 -1.5828 -2.9028 -1.6115 3.0372 2.5063 -0.5151 2.1571 3.0749 0.2455 -2.1932 -0.5220 -2.7459 2.1562 2.0170 -0.5926 -0.1136 -1.5965 -1.2931 0.4204 1.4700 1.1728 -2.3809 -1.7097 -0.0678 1.0636 2.1094 -0.1445 -0.7441 -0.2786 2.3964 -4.3866 -2.4887 2.2100 1.2032 1.1789
3.9514 -4.6040 -1.8109 2.2849 2.7079 -1.0005 -4.8764 1.1391 2.8555 -3.3886 -1.0988 -1.6679 1.0120 -1.7873 -4.3757 -2.2706 3.5784 3.5731 0.5038 3.4936 2.9861 2.3137 -1.0142 0.1627 1.5655 -4.5439 -1.7349 2.9571 1.9667 1.1683 -4.0589 1.9309 2.0075 -2.2756 -0.2513 -1.4376 2.7584 -2.6100 -2.2512 0.6955 2.0346 0.6193 -0.4807 -0.9141 -2.8063 -2.1135 0.8305 1.1929 -0.4506 -0.8622 0.8542 0.5569 -1.8572 -3.0325 -1.7569 2.8078 2.4990 -0.3421 2.3716 2.8230 1.2629 -1.5107 -0.6474 -2.6194 1.5778 2.2911 -1.0192 -1.0852 -1.4985 -0.8356 0.3227 1.5135 1.7246 -1.6030 -2.0903 0.2195 1.3755 1.8142 0.0215 -0.6516 -0.4725 2.6161 -3.9399 -1.9167 2.0442 2.1963 0.3827
3.8242 -4.9265 -1.8219 3.5232 0.9007 0.6403 -5.0440 1.3688 2.5402 -3.1640 -0.0389 -2.6678 1.1014 -2.0297 -4.1026 -1.9361 3.7891 3.7154 0.6120 3.5669 2.5081 1.5596 -1.8715 0.6697 3.8751 -2.8454 -2.9930 2.0634 2.6447 -0.0835 -4.1117 2.4168 2.3309 -2.1811 0.2973 -1.6996 2.0005 -3.4222 -1.7416 1.2785 1.0289 1.4007 -0.3780 -0.8046 -2.7791 -2.4322 1.0263 1.3790 -1.0446 -0.7820 0.8061 0.3842 -2.0008 -2.8774 -1.7084 3.0081 2.5539 -0.2916 2.4770 2.5725 0.6296 -1.9494 -0.3954 -2.7109 1.8688 2.4947 -1.1910 -0.8391 -1.6098 -1.1451 0.4330 1.5198 1.3622 -2.1210 -1.7140 -0.0762 1.5156 1.4102 -0.2853 -0.7335 -0.3915 3.2645 -3.6097 -2.2550 2.2218 1.6323 0.5908
3.8073 -1.5493 -4.4468 0.9956 2.6375 -2.6244 -1.8179 0.4637 5.3969 -1.2820 -3.4993 2.1082 -0.3613 -3.3473 -2.8530 -2.4592 3.8498 3.1067 -1.7188 3.8571 0.3708 2.4401 0.0398 -0.9322 1.5141 -2.0305 -4.9066 -0.8547 1.2399 -2.0664 -2.4414 1.2311 4.3822 -1.1626 -2.1697 1.6254 2.3121 -2.2108 -2.7318 0.4392 2.1699 -0.3649 -0.7321 -2.6082 -0.6733 -0.8667 0.5835 2.7215 0.9605 -0.1475 1.4215 0.2570 -2.9270 -1.6453 -2.0220 2.6864 2.4246 -1.0428 3.0741 1.3407 1.6818 -1.1200 -0.6551 -1.3884 1.7186 3.4087 -0.1230 -2.1654 0.5369 0.1532 0.9613 1.8002 1.1853 -1.7516 -1.9456 -0.4644 1.8242 0.7006 0.5050 -0.8121 0.2572 2.4130 -1.9409 -4.0782 0.0731 1.9425 -1.6784
4.1748 -4.0672 -2.8706 3.5817 1.4286 0.9262 -4.2359 1.6294 4.3247 -3.7123 -0.6021 -1.2614 0.7646 -1.7395 -4.2983 -1.9420 3.9540 3.1728 0.2523 3.7522 1.3494 1.6673 -1.9042 0.4126 4.1561 -1.9451 -1.7714 2.0190 1.2561 -0.8727 -3.9708 1.9037 2.9579 -2.4629 0.0556 -1.3977 2.1516 -3.0543 -2.1748 1.2890 0.9985 1.3214 -0.7374 -0.8229 -2.7609 -2.3780 0.6586 1.7134 -0.9377 -0.9896 0.8896 0.1725 -1.8900 -3.0152 -1.8121 2.9179 2.2122 -0.3451 2.6350 1.9878 0.6558 -1.9965 -0.5759 -2.5003 1.6650 2.7093 -1.3876 -0.9981 -1.5042 -1.0232 0.2394 1.6004 1.2718 -1.9272 -1.9606 -0.0998 1.3812 1.1625 -0.3538 -0.8781 -0.3968 3.5195 -2.8942 -2.2153 2.2229 1.2340 0.3357
2.2629 -5.7295 -1.4343 3.0984 0.3379 1.1665 -4.6130 3.7207 1.0564 -1.0110 2.1353 -3.4321 2.2127 -1.6846 -3.9322 -2.0622 3.6358 3.6579 0.0373 1.7627 4.0482 0.1712 -2.4633 0.3449 3.5331 -3.7320 -1.1126 1.7221 -0.9705 2.6120 -3.2081 3.9262 1.0194 -0.5307 1.6826 -2.1767 1.3908 -3.6021 -2.0079 0.8163 0.8798 1.5255 0.8864 -0.0635 -2.9007 -1.9436 1.9980 0.4142 -1.5560 -0.2868 -0.1786 1.0585 -1.4573 -3.1365 -1.4915 2.9216 2.5736 -0.9704 1.5888 3.0726 -0.0182 -1.9198 -0.9510 -2.5470 2.6642 1.5150 -0.3520 0.1820 -2.2368 -1.5477 0.7057 0.8180 1.2056 -2.1825 -1.8068 -0.5422 0.6453 1.9557 -0.3093 -0.4329 -0.8430 2.4884 -4.2527 -1.4871 1.8193 -0.0093 1.8564

>  <OB_ATOM_TYPES> (1lmoA1)
C.3 C.3 O.3 O.3 O.3 O.3 O.3 O.3 O.2 O.2 C.3 C.3 N.am N.am O.3 O.3 O.3 C.3 C.3 C.3 C.3 C.3 C.3 C.3 C.3 C.3 C.3 C.2 C.2

>  <ENSEMBLE_RMSD> (1lmoA1)
0.785 0.971 0.996 1.043 1.081 1.094 1.099 1.165 1.273 1.278 1.282 1.293 1.342 1.352 1.410 1.433 1.436 1.481 1.505 1.507 1.525 1.572 1.615 1.634 1.682 1.709 1.791 1.884 1.909 1.987 2.155 2.173 2.260 2.381 2.410 2.415 2.517 2.573 2.657 2.736 2.769 2.770 2.774 2.796 2.801 2.878 3.037 3.072 3.186 3.198

$$$$
