
 OpenBabel03071213D

 19 19  0  0  0  0  0  0  0  0999 V2000
   65.7850   53.8870  -11.0130 C   0  0  0  0  0
   67.4520   55.0430  -12.5470 C   0  0  0  0  0
   70.5170   49.7960  -13.8910 C   0  0  0  0  0
   68.4370   54.2610  -16.4960 O   0  0  0  0  0
   62.6230   59.7300  -19.5530 C   0  0  0  0  0
   65.6270   55.9590  -17.2550 C   0  0  0  0  0
   69.1880   50.8840  -11.9650 C   0  0  0  0  0
   68.2390   52.0100  -11.4950 C   0  0  0  0  0
   65.7980   55.0430  -16.0260 C   0  0  0  0  0
   68.7430   51.4330  -14.4300 C   0  0  0  0  0
   66.9250   52.8920  -14.8620 O   0  0  0  0  0
   62.9130   58.9950  -18.2580 C   0  0  0  0  0
   64.5710   57.1240  -17.0480 C   0  0  0  0  0
   63.9220   57.7870  -18.3720 C   0  0  0  0  0
   66.5400   53.8050  -12.3290 C   0  0  0  0  0
   69.8100   51.0570  -13.3890 C   0  0  0  0  0
   67.9730   52.6050  -13.9430 C   0  0  0  0  0
   67.2880   52.4420  -12.5710 C   0  0  0  0  0
   67.1200   53.7900  -16.1920 P   0  0  0  0  0
  1 15  1  0  0  0
  2 15  1  0  0  0
  3 16  1  0  0  0
  4 19  1  0  0  0
  5 12  2  0  0  0
  6  9  1  0  0  0
  6 13  1  0  0  0
  7  8  1  0  0  0
  7 16  1  0  0  0
  8 18  1  0  0  0
  9 19  1  0  0  0
 10 16  1  0  0  0
 10 17  1  0  0  0
 11 17  1  0  0  0
 11 19  1  0  0  0
 12 14  1  0  0  0
 13 14  2  0  0  0
 15 18  1  0  0  0
 17 18  1  0  0  0
M  END
>  <MOLID> (1lpmA1)
1lpmA1

>  <SMILES_CANONICAL> (1lpmA1)
C=C/C=C/CCP(O[C@@H]1C[C@H](C)CC[C@H]1C(C)C)O	

>  <FINGERPRINT> (1lpmA1)
0000000000000000000000000000000000000001000001000000001000001000000000000000000000000101000011000000000000000000000000100000000001000000000010000000000000000100000000000000000000000000000000010000000000000000010000000000000000000000000000000000010000000000000000000000000000000000000000000000000000010000000000000000000000000000000000000000000000100000010000000000000000000000000000000000000000000000000000001000000000000001100000000000000010010001000000000000000000000000000000000000000000001000001000000000100000000000000000100000000000101000000000000000000000000000000000000000001001000000001000000000000000000000000000000101000000000011000000010000000000000000000000000000010100000000000010000000000000000001000000001000000000000000000000000000000000000000000100000000000000000000000000000001000000000000000000000000000100000000000000000100000000000000000000000000000000000000000000000000000000000000000001000000000000000000000000000000000000000000000000000001010001000010000000000000000000000000000000001000000000000001

>  <MACCS166> (1lpmA1)
000000000000000000000000000010000100000000000000000000000000000000000000010000000000000001100000001001010001000000110100000101111111000001111010011111011010101100111000

>  <OB_MW> (1lpmA1)
284.191

>  <OB_logP> (1lpmA1)
4.9003

>  <OB_PSA> (1lpmA1)
43.05

>  <OB_MR> (1lpmA1)
86.1878

>  <OB_ATOMIC_CHARGES> (1lpmA1)
8.05803e-05 8.05803e-05 8.16273e-05 -0.1773820416 -1.02577e-05 0.0355430127 0.0001611644 0.0024240073 0.0855165418 0.0299672241 -0.3198667308 -0.0003320592 -0.0256042464 -0.0045630807 0.0023444642 0.0024248186 0.1212191495 0.0276265082 0.2202887376

>  <MCT_HBD> (1lpmA1)
1

>  <MCT_HBA> (1lpmA1)
2

>  <ENSEMBLE_TOTAL> (1lpmA1)
50

>  <ENSEMBLE_COORDS> (1lpmA1)
-1.0293 -0.2468 3.8099 0.6377 0.9092 2.2759 3.7027 -4.3378 0.9319 1.6227 0.1272 -1.6731 -4.1913 5.5962 -4.7301 -1.1873 1.8252 -2.4321 2.3737 -3.2498 2.8579 1.4247 -2.1238 3.3279 -1.0163 0.9092 -1.2031 1.9287 -2.7008 0.3929 0.1107 -1.2418 -0.0391 -3.9013 4.8612 -3.4351 -2.2433 2.9902 -2.2251 -2.8923 3.6532 -3.5491 -0.2743 -0.3288 2.4939 2.9957 -3.0768 1.4339 1.1587 -1.5288 0.8799 0.4737 -1.6918 2.2519 0.3057 -0.3438 -1.3691
-0.0409 1.0909 2.2135 -1.1039 -0.5606 3.7026 3.0073 -4.5861 0.5966 1.3440 1.2870 -0.6511 -4.1908 4.9389 -4.1518 -1.7374 1.4027 -1.8934 2.3006 -3.2991 2.5760 1.8662 -1.9523 3.1107 -0.7059 0.4693 -2.4726 1.5785 -2.6001 0.2959 0.1204 -0.7241 0.0205 -3.0289 4.4915 -3.6747 -1.8163 2.6381 -2.7106 -2.9553 3.3136 -2.8664 0.1759 -0.1701 3.0054 2.6947 -3.2055 1.1182 1.1853 -1.2248 0.8202 0.7457 -1.3648 2.2731 0.5608 0.0554 -1.3122
0.8759 1.0739 2.5721 -1.4207 0.2576 2.0871 2.8193 -4.7571 0.8508 1.8144 1.1954 -0.4391 -4.3184 4.5862 -4.0721 -0.7471 2.1586 -1.8963 1.7627 -3.4572 2.6664 1.3240 -2.0869 3.1405 -0.2584 0.8207 -2.3942 1.5511 -2.7105 0.3032 0.3034 -0.7260 -0.2061 -3.9747 3.7458 -3.0957 -2.1586 2.3689 -2.3009 -2.6097 3.5534 -2.7136 -0.0749 -0.0929 2.6674 2.4534 -3.3723 1.3211 1.1695 -1.3120 0.7585 0.4647 -1.3910 2.1071 1.0241 0.1453 -1.3563
0.6779 1.1343 2.6108 -1.5414 0.0641 2.2769 2.9529 -4.5821 0.7802 1.5804 1.3461 -0.4876 -3.7559 5.1367 -3.2895 -1.0953 1.8636 -2.2395 1.9614 -3.3280 2.6609 1.4707 -1.9855 3.1612 -0.3297 0.6097 -2.5726 1.5838 -2.5840 0.3097 0.2191 -0.6541 -0.1181 -2.9003 4.1584 -2.9922 -2.4898 1.7549 -2.7358 -3.2805 2.7798 -3.0603 -0.1307 -0.1273 2.7722 2.5646 -3.2120 1.2770 1.1506 -1.2112 0.8001 0.5078 -1.3588 2.1734 0.8544 0.1954 -1.3268
0.8210 0.9645 2.8401 -0.7905 -0.5787 3.8955 3.3021 -4.2520 0.2631 -0.2277 1.8621 -0.1145 -2.3838 4.8304 -4.6354 -2.1088 0.6985 -2.0750 2.2137 -3.2583 2.2408 1.6509 -1.9930 2.8552 -1.5396 0.6350 -0.6529 1.7104 -2.3730 -0.0363 0.1014 -0.5934 -0.2662 -2.7120 4.1383 -3.5448 -2.6948 2.0378 -2.3354 -2.3024 2.7816 -3.3755 -0.1099 -0.2000 2.6046 2.7698 -2.9730 0.8627 1.1216 -1.1095 0.5776 0.5742 -1.3953 1.9661 0.6044 0.7779 -1.0697
0.3521 1.2037 2.4825 -1.0366 -0.4338 3.6929 2.4243 -4.6014 0.0216 1.7914 1.5452 -0.4328 -3.2833 3.5466 -4.9713 -1.2351 2.3791 -1.4258 1.8797 -3.5318 2.1748 1.6656 -2.2279 2.9109 -0.6273 1.1647 -2.0810 1.3547 -2.3819 0.0305 0.2234 -0.2759 0.0495 -2.7469 3.5830 -3.7510 -2.7082 2.3823 -1.6133 -3.3666 2.9314 -2.6369 0.3159 -0.1791 3.0752 2.3301 -3.2849 0.7519 1.1834 -1.0533 0.7563 0.6901 -1.3327 2.1710 0.7934 0.5667 -1.2050
1.3191 0.7586 3.2032 -0.8266 -0.3240 3.8168 2.5178 -4.6229 0.1055 0.3777 2.2145 -0.0278 -3.7034 4.2987 -4.8346 -1.2347 1.0611 -2.1884 1.5047 -3.5881 2.1013 1.2582 -2.2961 2.8511 -0.9061 0.9438 -0.6982 1.6165 -2.3380 -0.0462 0.4745 -0.2622 -0.1960 -3.3693 3.8380 -3.6280 -2.2915 2.0793 -2.3824 -2.3224 2.8823 -3.4486 0.1401 -0.0360 2.6942 2.3220 -3.3288 0.8540 1.2962 -1.0395 0.6713 0.5351 -1.3041 1.9638 1.2919 1.0634 -0.8111
-1.4846 -0.9835 2.9834 0.3020 -0.5192 4.5684 3.8042 -3.5980 0.0245 -1.1863 -0.8378 -1.9723 -2.8381 4.2724 -5.5260 -2.0302 2.3240 -1.1241 3.1045 -2.5932 2.1645 2.2851 -1.5139 2.8383 -0.7014 1.7232 -0.7504 1.6776 -2.3520 0.1265 -0.4180 -1.2323 0.2655 -2.2927 4.3622 -4.3126 -1.8433 3.3762 -2.1537 -2.4724 3.3389 -3.3291 -0.0364 -0.5610 3.0936 3.0922 -2.4297 0.6597 0.8890 -1.2500 0.8166 0.8558 -1.5192 2.3201 -0.7068 -0.0070 -0.6930
1.4697 0.5681 3.3609 -0.9710 0.3821 2.9034 2.2280 -4.6491 -0.1602 1.2582 2.0309 0.5653 -4.1615 4.2780 -4.7081 -1.1951 2.0143 -1.5695 1.4967 -3.8120 2.0437 1.3330 -2.5983 2.9323 0.1756 1.5413 -1.9817 1.2886 -2.3729 0.0279 0.3251 -0.1960 0.2254 -3.6214 3.1471 -4.2530 -2.0934 2.0384 -2.7484 -2.7697 3.1313 -3.1039 0.2991 -0.3695 3.2072 2.1218 -3.4293 0.7200 1.1584 -1.1317 0.8974 0.5390 -1.5073 2.2400 1.1188 0.9345 -0.5986
1.2641 0.6329 3.3830 -1.1253 0.0220 3.0206 2.8098 -4.3664 -0.2088 -0.3781 2.0539 0.5872 -3.5106 4.7587 -4.4549 -1.0004 1.8964 -2.2854 1.9165 -3.7086 1.9939 1.5897 -2.5512 2.9144 -1.0680 0.9580 -1.0854 1.5427 -2.2651 0.0104 0.2130 -0.3117 0.2089 -2.6291 3.9181 -3.9205 -2.1567 1.6203 -3.1751 -2.8691 2.5070 -3.8732 0.2706 -0.4934 3.2427 2.5092 -3.2021 0.6989 1.1871 -1.0880 0.9015 0.6489 -1.5670 2.2452 0.7856 1.1864 -0.2033
0.7173 1.0845 2.7823 -1.5073 0.0082 2.4929 3.1975 -4.1749 0.1647 -0.3160 2.0345 -0.2627 -1.8079 4.7419 -3.6539 -1.7764 0.5986 -2.3143 2.1113 -3.2981 2.1995 1.5599 -2.0746 2.9010 -1.4118 0.5770 -0.8271 1.6713 -2.2380 -0.0052 0.1561 -0.4038 -0.1674 -1.7673 3.4600 -3.2848 -2.9662 1.4662 -2.5213 -2.9515 2.7312 -2.9464 -0.0558 -0.2081 2.8303 2.7053 -2.9284 0.8573 1.1464 -0.9852 0.6767 0.5522 -1.3419 2.0345 0.7430 0.9508 -0.9561
0.4268 1.0387 2.8400 -1.6055 -0.3978 2.7728 3.6360 -3.7925 0.3058 -1.0282 1.4618 -0.0886 -2.0482 5.1780 -2.6352 -1.2589 0.9496 -3.3213 2.6127 -2.9544 2.3921 1.8678 -1.8159 3.0558 -1.3489 0.0104 -2.1413 1.6794 -2.2911 0.1872 -0.2100 -0.8399 0.0751 -1.7676 3.8892 -2.8298 -2.5487 1.6638 -3.5042 -2.7590 2.9647 -3.2904 -0.1223 -0.3525 3.0335 2.9412 -2.6214 0.9531 0.9675 -1.1093 0.8231 0.6262 -1.4269 2.2748 -0.0603 0.4455 -0.9025
-0.3230 0.8623 2.9717 -0.5176 -1.0760 4.4736 3.1884 -3.7619 -0.2743 -0.8040 1.7837 0.0367 -2.5497 5.2557 -3.1880 -1.1978 0.6283 -3.3403 2.7079 -3.0136 2.0274 2.2145 -1.8758 2.8927 -1.4906 -0.0479 -2.0247 1.3969 -2.1160 0.1255 -0.3813 -0.5719 0.5046 -2.7715 4.0551 -3.7245 -2.1812 1.7126 -3.5915 -1.8185 2.9964 -3.6015 0.3680 -0.3771 3.4708 2.7581 -2.5931 0.5761 0.9123 -0.9424 0.9698 0.8568 -1.3690 2.4349 -0.3679 0.4507 -0.7390
1.1241 0.4895 3.4512 -1.1091 -0.6106 3.4196 2.9882 -4.0942 -0.5372 -0.6803 1.7344 1.0013 -3.0585 3.6509 -5.7461 -1.0668 2.3962 -2.1466 2.4946 -3.5709 1.8232 2.0889 -2.5029 2.8157 -1.2777 1.0802 -1.4403 1.4046 -2.2819 -0.0093 -0.2057 -0.6093 0.5185 -2.3298 3.4988 -4.6402 -2.3483 3.1427 -2.2187 -2.9015 3.6244 -3.3338 0.3826 -0.8237 3.4424 2.6660 -2.9883 0.4368 1.0117 -1.1886 0.9694 0.8344 -1.7815 2.3626 -0.0173 0.8349 -0.1685
1.2127 0.4317 3.5451 -1.1678 -0.2437 3.6387 2.1031 -4.5936 -0.1342 2.3468 0.7734 -1.4267 -4.2228 2.3279 -4.7194 -1.1607 2.5662 -0.9293 1.1188 -3.6385 1.9157 0.9220 -2.3873 2.7424 0.3336 2.7584 -0.9361 1.3234 -2.2551 -0.1428 0.4385 -0.0537 -0.1652 -3.3538 3.0298 -3.9907 -1.7508 3.0994 -2.1822 -2.7713 2.4987 -2.7966 0.0232 -0.0322 2.7371 1.9613 -3.3418 0.6943 1.1217 -0.9842 0.6645 0.3033 -1.2747 1.9160 1.2188 1.3195 -0.4304
-0.0049 1.0012 3.0252 -0.6127 -0.9972 4.3270 2.7865 -3.9516 -0.4375 -0.1500 2.2068 0.1489 -1.7307 4.7468 -3.8216 -2.2424 0.8796 -2.1266 2.3964 -3.2438 1.8922 2.0738 -2.0869 2.8110 -0.7837 0.5063 -2.2021 1.3192 -2.0227 0.0148 -0.1679 -0.2068 0.4501 -2.2929 3.7147 -3.1918 -2.7360 1.3163 -3.4569 -2.7769 2.5726 -3.9066 0.4408 -0.3732 3.4441 2.5562 -2.7662 0.4663 1.0195 -0.8345 0.9232 0.8319 -1.3438 2.3498 0.0736 0.8822 -0.7097
1.4912 0.4965 3.4952 -0.9615 0.1204 3.2916 2.1748 -4.2302 -0.7025 0.7035 2.3000 0.9536 -2.6846 3.9011 -5.0707 -1.6141 2.0163 -1.4815 1.6849 -3.7045 1.6583 1.5531 -2.6158 2.7010 -0.1553 1.7468 -1.7504 1.1461 -2.0604 -0.1304 0.0906 0.0035 0.4416 -2.8654 3.4346 -3.8340 -2.4511 1.3951 -2.5390 -3.0068 2.0348 -3.5709 0.3957 -0.5306 3.3603 2.1151 -3.1293 0.3263 1.0467 -0.9441 0.8976 0.6098 -1.5225 2.2391 0.7272 1.2883 -0.2852
1.6894 0.4075 3.4668 -0.5271 -0.4635 4.1504 1.8105 -4.5681 -0.4405 0.6092 2.5574 0.3168 -4.3277 3.0267 -4.9645 -0.6204 1.7307 -2.1268 1.1220 -3.7127 1.7738 1.1205 -2.5257 2.7149 -0.6004 1.5218 -0.6095 1.2302 -2.1822 -0.1827 0.5370 0.0821 0.0796 -3.4841 3.3713 -3.9897 -1.7120 2.6656 -2.4936 -2.3598 2.5544 -3.6555 0.3643 -0.1291 2.9786 1.8556 -3.3829 0.4918 1.2171 -0.9779 0.7432 0.5024 -1.3146 2.0442 1.5731 1.3392 -0.2974
-1.6526 0.0722 2.0828 -0.8893 -1.1127 4.1023 4.1811 -2.4484 0.1242 -0.6098 -2.2839 -2.1751 -2.9428 5.0351 -3.6125 -0.7882 1.4308 -1.2458 3.1302 -1.3758 2.0809 1.9745 -0.5370 2.5793 -1.8257 0.3536 -1.4238 1.7406 -2.1117 0.1580 -0.6197 -1.8696 0.2032 -1.7887 4.4138 -3.3667 -0.8895 2.4163 -2.3498 -1.6414 3.5150 -2.2641 -0.4476 -0.3516 2.8767 3.0719 -1.5326 0.5780 0.5827 -1.2456 0.6350 0.6380 -1.1209 2.1537 -1.2236 -1.2470 -1.1363
1.2083 0.9368 2.9337 -1.1477 0.9267 2.1330 1.6524 -4.7672 0.0854 2.3366 1.6375 0.0665 -4.5204 2.3270 -3.7670 -0.1552 2.7177 -1.7502 0.8037 -3.5821 2.0785 0.7177 -2.2620 2.8144 0.7143 1.6285 -2.3287 1.1222 -2.3612 -0.0693 0.5668 -0.0337 -0.2022 -3.8397 2.4320 -2.6251 -1.5822 2.3105 -1.7843 -2.4784 2.8722 -2.5969 -0.0239 0.1004 2.7033 1.6518 -3.4564 0.8311 1.0968 -1.0286 0.6637 0.2180 -1.1588 1.9028 1.6589 0.7606 -1.0885
0.1921 1.0962 2.7723 -0.4986 -0.7942 4.1745 2.5285 -4.0873 -0.7050 0.0174 2.4662 -0.0923 -1.2881 3.1499 -4.9275 -2.1988 1.1309 -1.4612 2.0055 -3.4581 1.6230 1.7915 -2.3124 2.5856 -1.4258 1.3167 -0.1529 1.2647 -2.0191 -0.2440 0.0429 -0.0166 0.1638 -2.1150 2.4200 -4.1789 -2.8668 2.4024 -1.8456 -2.8055 2.9717 -3.0519 0.5435 -0.3040 3.1936 2.3582 -2.9354 0.2516 1.0857 -0.8327 0.6943 0.7342 -1.3331 2.0944 0.6344 1.1388 -0.8939
0.8928 1.0652 3.2253 -0.3478 -0.6179 4.5052 1.3814 -4.3025 -0.7083 1.3097 2.4923 0.5220 -4.6968 3.1234 -3.7196 -0.8519 1.8855 -2.2315 1.0447 -3.7200 1.6649 1.2562 -2.6588 2.7192 0.5874 1.4566 -2.1271 0.9233 -1.9636 -0.0682 0.3497 0.2654 0.5409 -3.5707 2.5150 -3.3467 -1.1381 2.3857 -3.5994 -2.3507 2.6704 -4.0795 0.7772 -0.4053 3.5197 1.6058 -3.2468 0.3445 1.1122 -0.8610 0.9695 0.6082 -1.3378 2.3337 1.1075 1.2544 -0.4648
-1.3267 -0.1377 2.8734 -0.4132 -1.8933 4.3431 3.8942 -2.0971 -0.6969 -1.5048 -1.6030 -1.8801 -1.8697 4.0384 -5.1869 -0.9166 1.9720 -0.8791 3.2411 -1.7196 1.6510 2.2484 -1.0606 2.5820 -1.9801 1.0214 -0.3991 1.5197 -1.7751 -0.1312 -0.7816 -1.5821 0.4162 -1.9106 4.1010 -3.8555 -1.5290 3.0220 -1.7292 -1.2911 3.1034 -3.0392 -0.0732 -0.8430 3.3152 2.9343 -1.3712 0.2124 0.5065 -1.0978 0.7809 0.8157 -1.4313 2.2380 -1.5634 -0.6464 -0.6148
1.6207 0.4422 3.4783 -0.8263 0.7088 3.0903 1.2911 -4.4281 -0.6061 1.9848 1.9851 0.7355 -4.8194 2.2518 -3.3836 -0.1204 2.7346 -2.2278 0.8291 -3.7187 1.7114 0.9202 -2.6009 2.7250 0.8479 1.5868 -2.1224 0.8226 -2.0489 -0.1368 0.3431 0.2475 0.3409 -3.5524 2.3428 -3.7906 -1.2236 2.3829 -3.1533 -2.4955 2.6886 -2.8914 0.3070 -0.2666 3.2709 1.4606 -3.3139 0.3959 0.9770 -0.9133 0.8625 0.3284 -1.3139 2.1828 1.3051 1.2329 -0.4814
-1.6698 -0.1855 2.2961 -0.5156 -0.9947 4.3070 4.2268 -2.0153 -0.2004 -2.5906 -2.3742 -0.9234 -1.7246 5.4884 -3.6653 -0.7543 1.1338 -1.7271 3.2442 -1.1822 1.9054 2.0770 -0.4535 2.5318 -1.1375 -0.2268 -2.2422 1.7765 -1.9327 0.0605 -0.5823 -1.9226 0.3146 -2.1715 4.3942 -3.0480 -1.6718 2.1604 -2.2787 -1.2759 3.4104 -2.5223 -0.3261 -0.3497 2.9544 3.0783 -1.2484 0.4047 0.5882 -1.1902 0.6574 0.7434 -1.0928 2.1746 -1.3141 -1.4186 -0.9991
0.7632 0.4565 3.7915 0.2007 -1.7337 4.7379 1.7017 -3.6489 -1.3851 1.1254 2.2113 1.2971 -3.3978 3.1950 -6.0807 -1.4809 1.6238 -1.8806 1.8467 -3.6408 1.0776 1.9932 -2.7835 2.3140 -1.1523 2.2444 -0.5500 0.8220 -1.7249 -0.1134 -0.0882 0.1076 1.1153 -2.9356 3.4647 -4.8596 -1.8857 2.6866 -2.8320 -2.5640 2.4253 -3.9496 1.0622 -1.0166 3.7256 1.8999 -2.7835 -0.1662 0.9812 -0.8329 1.1131 0.9340 -1.6943 2.3746 0.1744 1.4437 0.2704
1.6609 0.2449 3.7149 -0.7172 -0.4288 3.9889 1.8557 -3.6957 -1.2608 0.0027 2.3824 1.5939 -3.9702 3.1874 -4.7919 -0.6307 2.4690 -2.1323 1.7888 -3.6230 1.2075 1.7929 -2.7386 2.4364 -1.0228 1.4723 -1.0737 0.7902 -1.7820 -0.1264 -0.2719 0.0452 0.9866 -2.8497 3.1528 -4.0700 -0.8387 1.8807 -3.4803 -1.8148 2.1996 -4.3332 0.6761 -0.8956 3.6543 1.9107 -2.7948 -0.0530 0.8219 -0.8579 1.0805 0.7113 -1.6785 2.3604 0.1046 1.4608 0.2983
-0.7856 1.1588 1.5066 -2.1799 -0.8730 1.8558 4.2933 -2.5749 1.2896 0.0755 -2.2442 -2.6044 -1.0752 4.7971 -0.7859 -2.0992 0.9989 -2.2618 2.6613 -1.4913 2.7890 1.4469 -0.5945 2.8860 -0.7912 0.3422 -2.6077 2.0005 -2.1468 0.4851 -0.2272 -1.7765 -0.2682 -1.8754 3.7949 -1.1503 -2.2386 2.2631 -3.0285 -2.1314 3.4954 -2.5267 -0.8848 -0.1807 2.1925 3.1230 -1.6260 1.3547 0.7979 -1.2194 0.5420 0.3224 -1.0698 1.9841 -0.4322 -1.0533 -1.6520
1.4509 0.6496 3.3531 -0.9894 0.8644 2.9164 1.3937 -4.3756 -0.5172 1.3715 2.3989 0.6149 -4.4184 2.2139 -2.3659 -0.0846 2.4626 -2.6236 0.7741 -3.5917 1.7399 0.8008 -2.4360 2.7169 1.0432 1.5291 -2.2703 0.8447 -1.9951 -0.1625 0.2560 0.2936 0.1910 -3.0984 2.3797 -2.4542 -1.0022 1.8122 -3.5936 -2.3338 1.7825 -3.5070 0.1521 -0.0900 3.1538 1.4782 -3.2237 0.4524 0.9070 -0.8162 0.7964 0.2126 -1.1788 2.1053 1.2421 1.3207 -0.5458
-0.3191 0.2747 3.2910 -1.2334 -2.0353 3.4309 4.1263 -1.9190 -0.6186 -2.9322 -1.2728 0.1456 -1.1921 5.3675 -4.5835 -1.9697 1.6945 -1.4933 3.4282 -1.7558 1.7416 2.3896 -1.2358 2.7101 -1.1085 0.4614 -1.4994 1.7192 -1.8278 -0.0616 -0.6013 -1.7537 0.4863 -1.8268 4.2248 -4.3166 -1.9829 2.3112 -2.8428 -1.7582 3.6143 -3.0252 0.0145 -1.1937 3.3738 3.0998 -1.3436 0.3242 0.6707 -1.2606 0.8817 0.9888 -1.6672 2.3172 -1.5130 -0.6831 -0.2615
-1.1291 0.9298 1.6524 -1.4349 -0.6622 3.5245 4.4672 -1.7876 0.7141 -0.6811 -3.1036 -2.3219 -1.6106 5.6753 -2.0917 -0.9315 0.8377 -1.9662 2.8422 -0.8241 2.3038 1.4737 -0.2010 2.4761 -1.8172 -0.3762 -1.9013 2.0510 -2.0293 0.2752 -0.2890 -2.3040 -0.0900 -2.0981 4.4393 -2.2046 -1.7665 2.0500 -2.1437 -1.2750 3.2837 -2.0201 -1.0001 -0.5107 2.0878 3.1200 -1.1231 0.8461 0.6789 -1.3956 0.4154 0.3892 -1.0775 1.8761 -0.9893 -1.8207 -1.4317
1.4021 1.0715 3.0559 -0.9461 0.4291 3.5980 0.6686 -4.2295 -0.8093 2.6315 2.1488 0.3528 -4.5949 2.7079 -3.2946 0.0691 1.5072 -2.6855 0.2690 -3.4877 1.5103 0.5807 -2.4441 2.5622 0.9073 2.2674 -1.6862 0.7511 -1.8238 -0.2679 0.8024 0.5135 0.2506 -3.7056 1.8952 -2.7187 -1.3570 1.5612 -2.2847 -2.3426 1.8524 -3.1422 0.4275 -0.0777 3.2055 1.0462 -3.2160 0.2428 1.1161 -0.7721 0.7740 0.3186 -1.0418 2.0462 1.9562 1.1384 -0.7093
-2.1312 -0.0149 1.4210 -1.1121 0.2673 3.6184 4.1358 -2.2253 0.4973 -1.0165 -3.0311 -2.1604 -2.7126 4.4175 -1.5302 -0.4809 0.9604 -2.6210 2.8133 -0.9460 2.1488 1.5914 -0.0834 2.3706 -1.5557 0.0483 -2.0811 1.6967 -2.0162 0.2279 -0.6354 -1.8319 -0.1083 -1.7654 3.6986 -2.1390 -0.0888 1.9820 -1.6092 -0.6471 3.1755 -1.4136 -0.8275 0.2610 2.1308 2.9497 -1.3126 0.6894 0.4892 -1.1046 0.3662 0.3094 -0.7086 1.8321 -1.0124 -1.5360 -1.6399
2.0611 -0.0265 3.5362 -0.3263 0.6620 3.4172 0.7805 -4.0301 -1.2271 1.1093 2.8917 0.7748 -3.9285 2.4537 -4.9289 -0.3172 2.2381 -1.6921 0.5513 -3.6668 1.2020 0.8618 -2.7581 2.3723 -0.3168 2.0299 -0.1744 0.7317 -1.7294 -0.3488 0.5750 0.4818 0.5019 -3.2717 1.7422 -4.0115 -1.5865 1.7382 -2.2740 -2.0572 2.2178 -3.4253 0.6403 -0.4905 3.3354 1.1805 -3.1463 -0.0719 1.0708 -0.8136 0.8126 0.4284 -1.3311 2.0939 1.8134 1.5369 0.1079
-0.6161 0.6958 2.8549 -1.3725 -1.6118 3.4216 4.0024 -2.0213 -0.5357 -2.7681 -0.4124 0.5479 -1.2641 5.1759 -2.5321 -1.9658 0.8994 -2.6347 3.2497 -1.5029 1.7494 2.2024 -0.8168 2.5974 -1.2438 -0.3243 -2.1413 1.5892 -1.7855 -0.0791 -0.7344 -1.6839 0.4174 -1.5549 3.8751 -2.5818 -1.0852 1.6740 -3.5457 -0.9050 2.9962 -3.5056 -0.1875 -0.7066 3.2055 2.9705 -1.2827 0.2787 0.5183 -1.1043 0.7573 0.8119 -1.3031 2.2414 -1.6471 -0.7609 -0.5154
0.0752 0.4532 3.5382 -1.0541 -1.7589 3.7124 3.5286 -2.0727 -1.1580 -2.3890 0.5989 1.3339 0.0451 4.2833 -3.4235 -2.5448 1.3015 -2.2011 3.2347 -2.0138 1.2891 2.4633 -1.4079 2.4429 -1.6965 0.1728 -1.6847 1.3012 -1.5783 -0.2166 -0.8579 -1.1526 0.7087 -1.1781 3.7653 -3.2910 -2.2210 1.5720 -3.6247 -1.6186 2.6655 -4.0962 0.2521 -1.0435 3.4837 2.7911 -1.4065 -0.0248 0.5301 -0.9274 0.9195 0.9655 -1.5400 2.2459 -1.6269 0.0890 0.0460
1.6437 0.4819 3.4205 -0.8418 0.5617 3.5121 0.9896 -3.8756 -1.1601 0.7053 2.7666 1.0885 -4.0899 1.6812 -2.6087 0.1833 2.3844 -2.6798 0.8024 -3.5068 1.2748 0.9819 -2.5256 2.4139 1.1469 1.6248 -1.8083 0.4688 -1.6183 -0.3070 -0.0625 0.5542 0.5287 -2.8067 2.0265 -2.7195 -0.5745 1.4481 -3.5497 -1.9016 1.3014 -3.5588 0.3687 -0.3211 3.3538 1.2343 -2.8957 -0.0405 0.6946 -0.6145 0.8122 0.2603 -1.2199 2.1420 0.7972 1.7468 -0.1141
1.3664 0.4209 3.5043 -0.9606 -0.4612 3.5746 2.2760 -3.3456 -1.5237 -0.0827 2.3656 1.4321 -0.3279 1.9647 -4.9465 -2.6000 1.4607 -1.3017 2.1064 -3.2978 0.9389 1.9245 -2.4348 2.1689 -1.9331 2.1273 -0.1214 0.9094 -1.6026 -0.4326 -0.4283 0.0661 0.6377 -1.1126 1.6869 -3.9054 -2.8670 2.4520 -2.3763 -2.2018 2.5379 -3.5309 0.4903 -0.7956 3.3428 2.1560 -2.4520 -0.3150 0.7630 -0.6968 0.7797 0.7032 -1.5438 2.0458 -0.1812 1.5481 0.0288
1.6012 0.5087 3.4299 -0.8864 0.5651 3.4968 0.9045 -3.8388 -1.1882 0.4965 2.9072 0.9501 -4.0145 1.7796 -2.6831 0.2466 2.3414 -2.7114 0.7861 -3.4731 1.2489 0.9798 -2.4930 2.3859 1.2362 1.6653 -1.8002 0.4395 -1.5748 -0.3262 -0.0547 0.6021 0.5211 -2.6968 1.7424 -2.4848 -0.5055 1.3351 -3.5060 -1.8136 1.0876 -3.4024 0.3347 -0.3038 3.3420 1.1926 -2.8632 -0.0753 0.6841 -0.5794 0.7967 0.2465 -1.1919 2.1219 0.8234 1.7835 -0.1156
1.2264 1.1331 3.0335 -0.4163 -0.2466 4.2135 0.3483 -3.9542 -1.2020 2.5320 2.1448 0.4455 -3.7180 0.1714 -3.4736 -0.3609 3.0451 -1.5391 0.1762 -3.4483 1.2077 0.6330 -2.5333 2.3209 0.9486 2.4136 -1.9386 0.4999 -1.6170 -0.4200 0.6130 0.6483 0.3171 -3.3086 1.4281 -3.2972 -1.4110 2.7110 -2.5324 -2.3288 1.7681 -2.3121 0.7432 -0.2758 3.2453 0.8336 -3.0541 -0.0943 0.9944 -0.6764 0.6744 0.3593 -1.0692 2.0091 1.6357 1.4112 -0.6576
1.4527 0.6057 3.1522 -0.7461 1.4367 2.3300 0.7024 -4.3559 -0.7133 2.2749 2.1601 0.4930 -3.8247 0.0286 -2.2622 -0.0243 2.9928 -1.6328 -0.0348 -3.3633 1.4229 0.1431 -2.2211 2.3990 1.2594 2.3175 -2.0552 0.7254 -1.9029 -0.4381 0.6423 0.4645 -0.1704 -3.1414 1.0967 -2.6751 -1.1647 2.4631 -2.4227 -2.0918 1.6662 -1.8880 0.0523 0.2264 2.7416 0.9267 -3.2285 0.2625 0.9346 -0.7418 0.5216 -0.0111 -0.8792 1.7112 1.9251 1.2345 -0.7763
0.5453 1.8858 1.6512 -1.6095 0.9565 2.3950 0.9144 -4.5943 0.1626 2.7450 1.5669 -0.4663 -3.8124 0.3939 -0.7437 0.1952 2.7243 -2.1136 0.2531 -3.0904 1.9978 0.3671 -1.7029 2.5886 1.1407 1.7337 -2.7533 0.9003 -2.1613 -0.2268 0.7244 0.1772 -0.6322 -3.2723 1.2814 -1.5799 -1.2140 2.3077 -2.3360 -1.9743 1.8334 -1.3469 -0.1345 0.6795 2.2380 1.1583 -3.2466 0.7954 1.0435 -0.7695 0.3775 0.0662 -0.6480 1.5417 1.9635 0.6726 -1.5491
2.2778 -0.2711 3.4381 -0.0795 0.4966 3.6595 0.1370 -3.5590 -1.6087 1.1019 3.0806 1.0009 -3.2449 0.8632 -5.0046 -0.2908 2.4930 -1.4881 0.3066 -3.5237 0.8504 0.8310 -2.7941 2.0679 -0.3050 2.2831 0.0290 0.4142 -1.3988 -0.4565 0.5395 0.6824 0.6789 -3.0912 1.5033 -3.8449 -1.6319 2.1942 -2.0462 -1.7951 1.7557 -3.2945 0.8257 -0.6638 3.3347 0.7756 -2.8677 -0.4300 0.9727 -0.6710 0.7540 0.4530 -1.3263 2.0276 1.8033 1.7234 0.3325
1.7873 0.0683 3.6387 -0.5019 -0.8025 4.0735 1.6136 -3.0187 -1.8930 -0.2923 2.3942 2.0546 -1.2142 0.8473 -5.2564 -1.3860 2.9311 -1.5114 1.8446 -3.3319 0.5473 1.9330 -2.6495 1.8958 -1.6914 1.9369 -0.4210 0.5506 -1.4128 -0.3497 -0.4748 0.1406 1.1502 -1.1579 1.7574 -4.2836 -2.4546 2.8949 -2.5418 -2.3386 2.3823 -3.7689 0.8606 -1.1143 3.5105 1.7457 -2.3134 -0.5673 0.6732 -0.6791 0.9762 0.7789 -1.6893 2.1137 -0.2759 1.6588 0.6327
1.6446 0.8235 3.2953 -0.3959 -0.1479 4.2733 -0.2746 -3.4036 -1.4600 2.5871 2.3981 0.7893 -4.3502 0.9771 -2.4444 0.4827 1.4830 -2.7423 -0.1848 -3.2248 0.9985 0.4471 -2.5170 2.1758 1.0762 2.4457 -1.7475 0.2508 -1.2332 -0.4126 0.6922 0.8867 0.5947 -3.2974 1.5236 -3.0537 -0.9086 1.8814 -3.0698 -1.9594 1.1300 -2.7371 0.7837 -0.4074 3.3688 0.4140 -2.7316 -0.2990 0.9191 -0.5106 0.7522 0.3107 -1.0082 2.0615 1.7628 1.6355 -0.3430
1.0772 1.3488 2.9771 -0.8743 0.1819 3.9129 0.2271 -3.7488 -1.2200 2.4987 2.2949 0.3739 -3.1412 0.1773 -0.9805 0.1426 1.7643 -3.0451 0.0715 -3.2214 1.1821 0.4941 -2.2764 2.2838 0.6890 2.5917 -1.9097 0.4196 -1.4056 -0.4769 0.5193 0.8744 0.2326 -2.3066 0.3244 -2.0100 -1.2727 2.1273 -3.3121 -2.3469 1.4794 -2.8545 0.4248 0.0064 3.1642 0.7305 -2.8426 -0.1248 0.8772 -0.4488 0.6187 0.1880 -0.8322 1.9258 1.5822 1.6050 -0.7374
0.6718 -0.0041 4.0315 0.9621 -2.3987 4.4204 1.0699 -2.4990 -2.1617 -0.1854 2.3878 2.4073 -1.8168 1.0486 -5.7293 -1.0403 2.1164 -1.5920 1.7898 -3.0233 0.1397 2.0922 -2.4605 1.5097 -1.3856 2.6225 -0.2186 0.2395 -1.1413 -0.2795 -0.5932 0.1734 1.5239 -1.6322 1.3096 -4.4356 -1.7243 2.9472 -2.6146 -1.9815 2.5785 -3.8711 1.2984 -1.2585 3.4858 1.4209 -1.9139 -0.8180 0.5627 -0.5298 1.0802 0.9330 -1.6435 2.0623 -0.6808 1.6887 1.0595
2.2629 -0.5562 3.3334 0.2636 0.9080 3.5682 -0.5992 -3.2004 -1.6593 1.8719 3.1126 0.3918 -3.6465 -0.1777 -3.2833 0.3736 2.2515 -1.9651 -0.5392 -3.1203 0.8068 0.1326 -2.5309 2.0278 0.4052 2.5554 -0.4631 0.1443 -1.1374 -0.5287 0.8004 0.8720 0.5692 -3.0015 0.9809 -3.1439 -1.0365 2.1828 -2.4197 -1.6283 1.0333 -2.7478 0.7592 -0.4787 3.2506 0.1345 -2.6482 -0.4631 0.8563 -0.5465 0.6761 0.1810 -1.0159 1.9598 2.2656 1.5157 0.0905
1.0396 0.2444 3.6579 -0.7486 -1.4739 3.7902 2.2778 -1.9602 -2.1624 -1.8850 1.5329 2.3964 0.7830 1.3367 -4.4597 -2.1040 2.5097 -1.4237 2.5152 -2.4766 0.2390 2.2981 -1.9769 1.6514 -2.5851 1.5809 -0.3373 0.6378 -1.0463 -0.5615 -0.9695 -0.2348 0.9997 -0.0668 1.7609 -3.5261 -2.3939 1.9253 -2.7590 -1.4843 1.6097 -3.6825 0.6516 -1.1734 3.3225 2.0871 -1.4280 -0.7662 0.4163 -0.5134 0.8445 0.8578 -1.5503 1.8709 -1.3268 1.3331 0.9060
-1.7253 -1.4084 2.7306 -0.8444 0.6843 3.6005 3.9337 -0.5323 -0.6820 -1.4255 -3.2645 -1.7859 1.3313 3.5609 -1.0720 -2.0766 0.3662 -2.4477 2.6782 0.3521 1.2498 1.3128 0.7050 1.7973 -2.6900 -0.5327 -1.4072 1.6141 -1.2801 -0.2962 -0.5957 -2.0525 0.1166 0.0402 3.2608 -1.2175 -1.6503 1.6484 -1.8332 -0.3803 2.0555 -1.8617 -0.9866 -0.1471 2.3434 2.5724 -0.1152 -0.1849 0.2442 -0.9154 0.2510 0.3587 -0.4778 1.7116 -1.7108 -1.9071 -1.0125

>  <OB_ATOM_TYPES> (1lpmA1)
C.3 C.3 C.3 O.3 C.2 C.3 C.3 C.3 C.3 C.3 O.3 C.2 C.2 C.2 C.3 C.3 C.3 C.3 P.3

>  <ENSEMBLE_RMSD> (1lpmA1)
0.000 1.104 1.131 1.189 1.395 1.400 1.413 1.416 1.491 1.499 1.575 1.613 1.630 1.649 1.693 1.723 1.761 1.769 1.799 1.815 1.892 1.960 1.989 2.013 2.093 2.099 2.099 2.118 2.145 2.148 2.163 2.234 2.259 2.280 2.302 2.442 2.486 2.490 2.545 2.625 2.646 2.653 2.693 2.741 2.837 2.925 2.949 3.049 3.131 3.160

$$$$
