
 OpenBabel03071213D

  9  8  0  0  0  0  0  0  0  0999 V2000
   88.4750   68.0220   33.8670 N   0  0  0  0  0
   94.3970   68.9620   34.8620 N   0  0  0  0  0
   95.2810   68.9090   37.4610 O   0  0  0  0  0
   89.9190   68.1440   33.7370 C   0  0  0  0  0
   90.5350   67.9890   35.1070 C   0  0  0  0  0
   91.8640   67.2780   35.0060 C   0  0  0  0  0
   92.7770   67.6590   36.1430 C   0  0  0  0  0
   94.1760   69.3830   37.2400 C   0  0  0  0  0
   93.4490   69.0150   35.9640 C   0  0  0  0  0
  1  4  1  0  0  0
  2  9  1  0  0  0
  3  8  2  0  0  0
  4  5  1  0  0  0
  5  6  1  0  0  0
  6  7  1  0  0  0
  7  9  1  0  0  0
  8  9  1  0  0  0
M  END
>  <MOLID> (1lylA1)
1lylA1

>  <SMILES_CANONICAL> (1lylA1)
NCCCC[C@@H](C=O)N	

>  <FINGERPRINT> (1lylA1)
0000000000000001000000000000000000000001000000000000000000000000000000000000000000000000000000000000000000000000000001000000000000000000000000000000000000000000000000000000000000000000000000000000000000000000000000000000000000000000000000000000000000000000000000000000000000000000000000000000000000000000000000001000000000000000000000000000000000000000010000000000000100110000000000000000010000000000100000000000100000000000000000000000000000000000000000000000000000000000000000000000000000000000000000000000000000000000000000000000000000000000000000000000000000000000000000000000000000000000001000000000000000000000000000000000000000000001000000000000000000000000000000000001000000000000000000100011000000000000000000000000000000000000000000000000000000000000000100000000000000000000000000000000000000000000000000000000000000000000000000000000000000000000000000000000000000000000000000000000000000000000000000000000000000000000000000000000010000000000000000000000000000000000000000000000000000000000000000000000000000000000

>  <MACCS166> (1lylA1)
000000000000000000000000000000000000000000000000000000000000000000000000000000000101000001100010000100010000001000000100000000001010000101010100011000101111011010010000

>  <OB_MW> (1lylA1)
130.111

>  <OB_logP> (1lylA1)
1.0422

>  <OB_PSA> (1lylA1)
69.11

>  <OB_MR> (1lylA1)
36.5708

>  <OB_ATOMIC_CHARGES> (1lylA1)
-0.1313873311 -0.1245007351 -0.286714863 0.1093071847 0.0205605209 0.0034766614 0.0270806957 0.2260341695 0.1561436971

>  <MCT_HBD> (1lylA1)
2

>  <MCT_HBA> (1lylA1)
3

>  <ENSEMBLE_TOTAL> (1lylA1)
50

>  <ENSEMBLE_COORDS> (1lylA1)
-3.2244 -0.3128 -2.0315 1.8604 0.5978 -0.8280 2.7572 0.5508 1.9938 -2.2794 0.2939 -1.1118 -1.8831 -0.7296 -0.0744 -0.5115 -1.2766 -0.3915 0.5061 -0.8133 0.6264 1.7905 1.0988 1.4864 0.9841 0.5911 0.3305
-3.7664 -0.1042 -1.9655 1.5410 1.1917 -0.4492 3.3595 0.6274 1.9779 -2.7172 -0.9946 -1.5033 -1.6237 -0.1513 -0.9002 -0.5801 -1.0300 -0.2533 0.0978 -0.2515 0.8506 2.1601 0.6241 1.7441 1.5289 0.0884 0.4988
-3.9290 -0.0371 -1.1503 2.5311 0.4358 -0.7445 1.6721 0.9985 2.6104 -2.7042 -0.7790 -1.3820 -1.6191 -0.2012 -0.5076 -0.2925 -0.8021 -0.9010 0.6791 -0.7608 0.2551 2.1843 0.6220 1.5669 1.4782 0.5239 0.2531
-3.5850 0.1125 -1.5974 1.6733 0.8260 -0.7591 2.6316 1.3100 2.0397 -2.1544 -0.1213 -1.6707 -1.7657 -1.0930 -0.5830 -0.7958 -0.4364 0.3696 0.5615 -1.0992 0.2643 1.7072 0.6366 1.6090 1.7272 -0.1352 0.3277
-3.4148 -0.7455 -1.8932 1.2888 1.1875 -0.5341 2.4419 0.9366 2.1972 -2.2320 0.0702 -1.6849 -1.8273 -0.0459 -0.2366 -0.7192 -1.0629 -0.0911 0.3096 -0.5382 0.8807 2.5990 0.2564 1.1942 1.5541 -0.0582 0.1677
-3.8945 -0.2197 -1.0214 2.6458 0.2965 -0.4404 2.0617 0.3852 2.4935 -2.6481 -0.9018 -0.7277 -1.5107 -0.0231 -1.1861 -0.2068 -0.7774 -1.0999 0.4638 -0.5318 0.2325 1.7052 1.1051 1.5730 1.3836 0.6669 0.1765
-3.6341 -0.8624 -1.2321 2.6543 0.6026 -0.6479 1.9416 0.9444 2.4279 -2.3935 -0.1934 -1.5793 -1.7105 0.2725 -0.3159 -0.7410 -0.7716 0.1872 0.6150 -0.6351 -0.4675 1.8445 0.1437 1.5091 1.4237 0.4993 0.1184
-3.7777 -1.0504 -1.4602 2.4134 0.4638 -0.6935 2.5861 0.7537 2.4155 -2.4636 -0.4533 -1.6101 -2.0062 0.0352 -0.2579 -0.5702 0.4926 -0.3304 0.3529 -0.6642 -0.0124 1.7133 0.6704 1.5642 1.7520 -0.2478 0.3849
-3.6958 -0.5956 -1.7276 1.9836 0.9167 -0.9553 2.3736 -0.0175 2.4210 -2.2479 -0.6094 -1.6347 -1.8687 -0.7277 -0.1792 -0.3693 -0.6589 -0.0340 0.0243 0.7026 0.4956 2.2937 -0.0030 1.2015 1.5065 0.9928 0.4126
-3.5570 -0.9071 -1.5617 1.7348 1.0814 -0.6409 2.9041 -0.3687 1.7868 -2.1203 -1.0762 -1.6860 -1.4374 0.1497 -1.1315 -1.1777 -0.0086 0.3501 0.2653 -0.3818 0.5984 2.2585 0.6552 1.6243 1.1297 0.8560 0.6605
-3.6132 -0.6033 -1.4223 1.9063 0.6526 -0.7166 1.9509 1.3837 2.1498 -2.5755 0.2161 -0.8240 -1.2409 -0.2146 -1.3827 -0.5415 -1.1584 -0.4300 0.1658 -0.3694 0.6472 2.2972 0.3529 1.5920 1.6510 -0.2597 0.3865
-3.7940 -0.0871 -1.0716 2.3099 0.6493 -0.6227 2.3890 1.0755 2.3913 -2.6702 -0.9961 -1.2081 -1.4086 -0.1927 -1.4099 -0.6854 -0.0066 -0.0984 0.5316 -0.9019 -0.0326 1.5340 0.6649 1.6207 1.7936 -0.2053 0.4313
-3.6198 0.2807 -1.2878 2.2690 0.5661 -0.6281 2.4082 1.3031 2.2723 -2.8551 -0.9108 -0.9647 -1.4194 -0.7096 -1.3881 -0.6328 -0.0783 -0.2638 0.5237 -0.9681 0.1347 1.5398 0.7320 1.6288 1.7864 -0.2151 0.4966
-3.2470 -1.1279 -1.7674 1.4301 1.1218 -0.5350 3.1953 0.6062 1.8764 -1.9413 -0.5006 -1.8628 -1.7584 0.4394 -0.6946 -1.2826 -0.2957 0.5405 0.1749 -0.6838 0.4306 2.3528 -0.0517 1.2844 1.0763 0.4923 0.7279
-3.9547 -0.5767 -1.0435 2.6648 -0.0636 -0.3979 2.2603 0.4713 2.5465 -2.5718 -0.5585 -1.4832 -1.6860 -0.5699 -0.2617 -0.2357 -0.6026 -0.6758 0.3689 0.7780 -0.5318 1.4745 0.3185 1.6236 1.6797 0.8035 0.2238
-3.5300 -0.5925 -2.2213 1.6064 1.2234 -0.5258 3.3475 -0.0001 1.6919 -2.5391 -1.1751 -1.3349 -1.6089 -0.0769 -0.8863 -0.6028 -0.6188 0.1000 -0.1599 0.4936 1.0257 2.2041 -0.1724 1.2950 1.2827 0.9187 0.8557
-2.6101 -1.1882 -2.0262 1.5585 0.9441 -0.7262 2.8645 0.7335 2.0237 -2.8734 -0.1282 -1.0691 -1.5652 0.5110 -0.6771 -0.9736 -0.1638 0.5397 0.2640 -0.9463 0.1510 1.7769 0.4031 1.5742 1.5585 -0.1651 0.2101
-3.3834 -0.3309 -1.9236 2.9670 0.4132 -0.4487 1.8701 0.1173 2.3181 -3.0949 -0.6127 -0.5285 -1.6671 -1.0869 -0.4061 -0.7463 0.0865 -0.1724 0.6902 -0.3595 -0.3099 1.7307 0.9916 1.4761 1.6337 0.7814 -0.0050
-3.4562 -1.5149 -1.4858 2.4733 0.2029 -0.5778 2.5476 0.9638 2.2616 -2.8981 -0.1787 -1.5874 -2.0428 0.0812 -0.3709 -0.5984 0.1855 -0.7914 0.2695 0.5972 0.3742 2.1843 -0.0869 1.7554 1.5209 -0.2501 0.4221
-3.1941 0.2806 -1.1238 1.9511 0.8225 -0.9506 2.0978 0.2895 2.5232 -2.6453 -1.0571 -0.9904 -1.1755 -1.0267 -1.3324 -0.3308 -0.9353 -0.0820 -0.1273 0.5159 0.3001 2.1083 0.1453 1.3101 1.3157 0.9651 0.3460
-2.3449 0.7376 -1.9180 1.0769 1.0398 -0.5917 2.9114 1.3149 1.7615 -2.7357 -0.5170 -1.2991 -1.4959 -1.3126 -0.9694 -1.0675 -1.0528 0.4572 0.4419 -0.9978 0.5298 2.2923 0.3631 1.3118 0.9215 0.4248 0.7178
-2.6248 0.8944 -0.7882 1.7528 0.7625 -0.7798 1.6080 1.6263 1.9702 -2.3846 -0.3196 -1.5489 -1.8541 -1.3858 -0.6198 -0.3430 -1.4044 -0.6370 0.1724 -0.5712 0.5144 2.0566 0.5659 1.5602 1.6167 -0.1681 0.3290
-3.1032 -0.2730 0.1135 2.5983 0.0763 -0.3432 1.6546 0.4365 2.5140 -2.6905 -0.7175 -1.2064 -1.4276 0.0152 -1.5908 -0.2104 -0.8098 -1.2462 0.2843 -0.4695 0.1420 1.5640 1.1206 1.5056 1.3305 0.6212 0.1115
-3.5148 -1.5036 -1.5013 2.2672 0.1972 -0.6544 2.6665 0.7276 2.2204 -2.6363 -0.3588 -1.6532 -1.8168 -0.2138 -0.3953 -0.7056 0.7780 -0.6335 0.2380 0.8100 0.5465 2.1496 -0.2331 1.6697 1.3521 -0.2035 0.4011
-3.4134 -0.2873 -1.3215 2.5184 0.2941 -0.8624 0.8046 1.1172 2.1229 -2.3178 0.4799 -0.7567 -1.4488 -0.4555 0.0465 -0.2379 -0.8486 -0.7655 0.8983 -1.2362 0.1538 1.2835 1.0729 0.9993 1.9131 -0.1365 0.3837
-1.8494 -0.2525 -2.3275 1.0806 1.0784 -0.7633 2.8542 0.9710 1.7242 -2.4497 0.1760 -1.0759 -2.1706 -0.8687 -0.0216 -0.9654 -0.4777 0.8005 0.2906 -1.0466 0.1726 1.7782 0.4776 1.4213 1.4315 -0.0576 0.0697
-3.2976 0.5991 -0.7473 3.0403 0.2053 0.0961 1.2847 0.8487 2.2682 -2.8066 -0.7387 -1.0250 -1.5442 -0.9646 -0.2312 -0.3315 -0.7119 -1.0953 0.9146 -0.8674 -0.2569 1.1155 1.1732 1.1031 1.6248 0.4564 -0.1116
-3.6670 -0.6837 -1.6316 3.0928 -0.3423 -0.0764 1.6553 1.4065 2.2167 -2.9950 -0.0105 -0.5349 -1.6769 -0.6999 -0.2880 -0.5384 0.1799 -0.7449 0.7612 -0.5645 -0.5550 1.5587 0.3909 1.5436 1.8095 0.3236 0.0705
-2.8084 -1.6319 -1.9640 1.6420 0.9365 -0.9174 2.7624 -0.1611 2.2170 -2.1100 -0.3986 -1.6504 -2.2449 -0.1469 -0.1679 -1.1420 0.7629 0.3137 0.0836 -0.0587 0.6399 2.4718 -0.0622 1.0343 1.3455 0.7600 0.4949
-3.3495 -0.0756 -0.1491 2.6315 0.1642 -0.3606 1.6589 1.4827 2.1460 -2.7726 -0.8175 -1.2562 -1.5065 -0.1266 -1.7009 -0.3062 -0.7748 -1.0526 0.2411 0.1581 0.0009 1.8257 0.3073 1.8559 1.5776 -0.3178 0.5166
-2.8878 -1.5261 -2.2203 1.7865 0.9007 -0.6922 2.8356 -0.6559 1.6224 -2.7533 -0.8105 -0.9648 -1.5391 0.0788 -1.0582 -1.1834 0.6218 0.3054 0.0982 -0.0186 0.7871 2.3780 0.4754 1.5567 1.2653 0.9343 0.6641
-3.4072 -1.4461 -0.9120 2.8688 0.6611 -0.4252 1.7979 0.6047 2.3599 -2.6199 -0.4577 -1.6282 -1.9688 0.4885 -0.6471 -0.7550 -0.1562 -0.0238 0.4725 0.6843 -0.2749 1.8884 -0.2742 1.5164 1.7232 -0.1042 0.0348
-3.7710 -0.2781 -0.6597 2.8458 -0.2467 -0.3902 0.9771 0.9242 2.3588 -2.4406 -0.2482 -1.2375 -1.4656 -0.7770 -0.2139 -0.0700 -0.8103 -0.7891 0.5575 0.5656 -0.7175 1.5506 0.2316 1.5312 1.8161 0.6390 0.1181
-3.4794 -1.2291 -1.0089 2.0360 0.9658 -0.8899 1.9779 -0.5660 2.3029 -2.1795 -1.0359 -1.6263 -1.5524 0.2124 -1.0557 -0.6221 -0.1570 0.0736 0.0911 1.0761 0.5799 2.1285 -0.2566 1.1304 1.6000 0.9902 0.4940
-3.8316 -0.4043 -0.7386 2.9046 -0.1168 -0.4060 0.9656 1.3109 2.1686 -2.5446 0.2660 -0.7399 -1.4902 -0.7384 -1.1310 -0.1184 -0.1405 -0.9437 0.6629 -0.9731 0.0484 1.5659 1.0810 1.1295 1.8859 -0.2848 0.6127
-3.4847 -1.3244 -1.4616 2.4522 0.3804 -0.7830 2.0025 -0.2536 2.5646 -2.2676 -1.1988 -0.6811 -1.9822 0.2694 -0.4781 -0.6161 0.5986 -1.0283 0.3018 1.0419 0.0869 2.1307 0.3992 1.5399 1.4635 0.0875 0.2407
-3.3892 -1.5729 -0.6926 2.3757 -0.1782 -0.6168 2.0127 -0.1371 2.6489 -2.4070 -0.8220 -1.4515 -1.7988 0.2192 -0.5444 -0.5378 0.7522 -1.1779 0.4434 1.1945 -0.1183 1.9883 0.4965 1.6042 1.3126 0.0480 0.3484
-3.5543 -0.2283 -0.2136 2.8660 0.0365 -0.3688 0.6064 1.0786 2.1351 -2.4052 -0.6828 -0.9749 -1.3085 0.3443 -0.8355 0.0158 -0.2284 -1.2821 0.6612 -1.0132 -0.1592 1.3270 0.9893 1.1522 1.7916 -0.2961 0.5468
-3.8512 -0.0288 -0.9096 3.2302 0.3189 -0.1401 0.6384 0.7745 2.1767 -2.6951 -0.6853 -0.3278 -1.4715 -0.2146 -1.0710 -0.2458 -0.9241 -0.5527 0.9712 -0.0745 -0.8360 1.4998 0.9366 1.3247 1.9240 -0.1028 0.3357
-2.9857 -1.7362 -0.6566 2.4663 -0.0810 -0.7425 1.6527 0.1437 2.6691 -2.6925 -0.5376 -1.4212 -1.9139 0.4134 -0.5452 -0.5260 0.5946 -1.1084 0.4353 1.0212 -0.0235 2.1335 0.2605 1.5518 1.4303 -0.0786 0.2765
-3.3896 -0.2648 -0.0112 2.8535 -0.0332 -0.3126 0.5795 1.1305 2.1093 -2.4238 -0.5778 -1.0486 -1.2687 0.3837 -0.9183 0.0246 -0.2799 -1.3282 0.6229 -1.0400 -0.1632 1.2676 0.9967 1.1082 1.7341 -0.3152 0.5647
-3.5578 -0.2553 -0.1859 2.6108 -0.9090 0.2091 0.8712 1.4120 2.1663 -2.4198 0.1080 -1.0099 -1.3059 -0.8657 -0.7180 -0.0860 -0.5388 -1.5468 0.8484 0.3932 -0.8079 1.6814 0.8826 1.4195 1.3576 -0.2271 0.4736
-2.5798 0.3505 0.3812 2.6926 0.0663 -0.3861 0.4577 1.2875 2.0523 -2.5081 -0.4017 -0.8591 -1.1667 -0.1460 -1.5007 -0.2016 -1.2713 -1.2015 0.5854 -1.0180 0.0663 1.3996 0.8294 1.4221 1.3209 0.3033 0.0255
-3.3283 0.4027 -0.4336 2.9207 0.0104 -0.3070 0.4777 1.2450 1.9414 -2.3792 -0.6741 -0.2269 -1.4401 -0.7445 -1.4093 -0.1170 -0.0881 -1.0910 0.6987 -0.9712 -0.1721 1.3680 1.0725 1.1229 1.7995 -0.2527 0.5755
-2.2987 -1.7940 -1.5532 2.0696 1.5032 -0.6941 1.9663 -1.0883 1.6573 -1.9100 -0.3957 -1.5319 -2.2081 0.1858 -0.1698 -1.0214 0.0302 0.7509 0.0159 1.0972 0.4840 2.1042 -0.0057 1.1065 1.2824 0.4672 -0.0497
-2.3219 -1.3033 -1.9618 2.1327 0.9268 -0.7057 2.4350 -0.0693 2.0392 -1.9874 -1.2541 -0.5497 -2.2226 0.1417 -0.0194 -1.0995 1.0680 -0.4264 0.0543 0.9787 0.5453 1.8588 -0.5942 1.0987 1.1505 0.1058 -0.0203
-3.2291 -0.9939 0.0205 2.7739 -0.6727 -0.0467 1.1042 0.6157 2.5280 -2.7777 -0.3345 -1.1917 -1.2816 -0.5019 -1.3107 -0.5835 0.7461 -0.8206 0.9178 0.5846 -0.8985 1.6316 0.7490 1.4329 1.4445 -0.1925 0.2867
-2.6537 0.2787 0.4443 2.8255 -0.1301 -0.1005 0.3446 1.3961 1.8719 -2.4702 -0.5120 -0.7598 -1.2355 -0.0150 -1.4713 -0.1291 -1.0428 -1.4043 0.5841 -0.9945 -0.0712 1.3020 0.7688 1.4435 1.4323 0.2509 0.0474
-3.1653 -1.1702 -1.2248 2.5601 -0.1272 -0.7887 0.8256 -0.0194 2.2983 -2.1533 -1.0809 -0.1873 -1.6086 0.3261 -0.1673 -0.3695 0.4064 -1.0264 0.6364 1.3408 -0.3940 1.4373 -0.3172 1.2833 1.8373 0.6416 0.2069
-2.4503 -1.6852 -0.6098 2.3227 -0.6190 -0.6042 1.1494 0.3388 2.5283 -2.1571 -0.4309 0.0597 -1.8825 0.6497 -0.9614 -0.4822 0.5429 -1.5219 0.5535 1.0265 -0.5315 1.7570 0.3281 1.4679 1.1895 -0.1510 0.1729

>  <OB_ATOM_TYPES> (1lylA1)
N.3 N.3 O.2 C.3 C.3 C.3 C.3 C.2 C.3

>  <ENSEMBLE_RMSD> (1lylA1)
0.446 0.605 0.702 0.715 0.720 0.768 0.792 0.798 0.811 0.837 0.840 0.864 0.878 0.883 0.902 0.923 0.961 0.975 0.982 0.984 1.021 1.026 1.052 1.071 1.078 1.103 1.113 1.125 1.129 1.135 1.139 1.148 1.168 1.171 1.171 1.219 1.279 1.295 1.298 1.315 1.340 1.408 1.412 1.418 1.428 1.455 1.496 1.498 1.545 1.639

$$$$
