
 OpenBabel03071213D

 21 22  0  0  0  0  0  0  0  0999 V2000
   25.1280  -27.5210   89.0520 C   0  0  0  0  0
   31.8360  -24.3290   88.5400 N   0  0  0  0  0
   26.8510  -28.0250   87.4490 O   0  0  0  0  0
   31.7720  -22.2350   89.0070 O   0  0  0  0  0
   30.0620  -25.6190   87.6670 O   0  0  0  0  0
   27.4270  -22.9000   89.0590 C   0  0  0  0  0
   28.7290  -22.6300   88.3580 C   0  0  0  0  0
   27.6110  -24.1420   89.8030 C   0  0  0  0  0
   29.6010  -28.2160   88.4720 C   0  0  0  0  0
   29.6180  -29.7430   86.4620 N   0  0  0  0  0
   27.4790  -27.2030   89.3990 N   0  0  0  0  0
   29.4410  -29.6580   85.1550 C   0  0  0  0  0
   29.1800  -27.6730   85.9750 C   0  0  0  0  0
   29.1750  -28.4050   84.8300 N   0  0  0  0  0
   28.8800  -27.0790   89.1840 C   0  0  0  0  0
   29.6630  -23.3370   89.2600 C   0  0  0  0  0
   28.9230  -24.6330   89.3810 N   0  0  0  0  0
   26.5450  -27.5940   88.5610 C   0  0  0  0  0
   31.0990  -23.3150   88.9070 C   0  0  0  0  0
   29.4690  -28.4910   87.0270 C   0  0  0  0  0
   29.3500  -25.7150   88.6650 C   0  0  0  0  0
  1 18  1  0  0  0
  2 19  1  0  0  0
  3 18  2  0  0  0
  4 19  2  0  0  0
  5 21  2  0  0  0
  6  7  1  0  0  0
  6  8  1  0  0  0
  7 16  1  0  0  0
  8 17  1  0  0  0
  9 15  1  0  0  0
  9 20  1  0  0  0
 10 12  1  0  0  0
 10 20  1  0  0  0
 11 15  1  0  0  0
 11 18  1  0  0  0
 12 14  2  0  0  0
 13 14  1  0  0  0
 13 20  2  0  0  0
 15 21  1  0  0  0
 16 17  1  0  0  0
 16 19  1  0  0  0
 17 21  1  0  0  0
M  END
>  <MOLID> (1mcqB1)
1mcqB1

>  <SMILES_CANONICAL> (1mcqB1)
CC(=O)N[C@H](C(=O)N1CCC[C@@H]1C(=O)N)Cc1cnc[nH]1	

>  <FINGERPRINT> (1mcqB1)
0000010000000001000000000000001000000001000000000011000000000000000000000001000000000000000000000000010110000000000001000001000000000100000000000000001001000000000000000000000000000000000100000000000000000000001000000010000000100000000000000000000000001100000000000100000000001001100000000000000000001001000000101000000000100000001000001000000000000000010100000000000100111000000000000000011000000000100000000001001000000000000100000010100000000001100000010000001000000000000000000000000000001100000000000000010000000000000000000000000000000000000011100000000000000000000000000000000000000000000000000001100001000000000000000000001000000001001000000000000000001100000000000011000000100100000001100010000000100001000000000000000000000011000100100001000000000000000110000000000000000100000100000000000000000000000000000000001000000000000000000000000000000000000000000001000000000000000000010000000000001100000000000000000000000100000000000100011000000000000010010110000000000000010000000000000000100000000000000010001000000000

>  <MACCS166> (1mcqB1)
000000000000000000000000000000000000000000001000000010000000000010000000001111110011100001110011001000010001011000001111110000010010000111011100011111101111011110011000

>  <OB_MW> (1mcqB1)
293.149

>  <OB_logP> (1mcqB1)
-0.0377

>  <OB_PSA> (1mcqB1)
121.18

>  <OB_MR> (1mcqB1)
77.6228

>  <OB_ATOMIC_CHARGES> (1mcqB1)
0.0964360916 -0.0863426734 -0.2733176309 -0.2698555619 -0.2729979059 0.0237295221 0.031087132 0.0939374982 0.0784620468 -0.2267456596 -0.197410135 0.1986492802 0.1153994503 -0.221231758 0.1771601551 0.155210873 -0.2715079592 0.2422709383 0.2787888875 0.0820726334 0.2462047753

>  <MCT_HBD> (1mcqB1)
3

>  <MCT_HBA> (1mcqB1)
8

>  <ENSEMBLE_TOTAL> (1mcqB1)
49

>  <ENSEMBLE_COORDS> (1mcqB1)
-3.5678 -1.1705 2.4394 2.8129 3.9276 0.9870 -2.4349 -2.9356 1.2893 1.9956 2.2701 2.3517 1.7662 -0.2421 0.6897 -1.1388 3.3677 0.3780 0.1977 3.6618 -0.2776 -1.1980 1.8570 0.4299 -0.9416 -1.0931 -1.0589 -0.0547 -1.8904 -3.2644 -1.5305 -0.7919 1.3221 0.9180 -2.8179 -3.6352 0.8365 -2.8926 -1.5100 1.4790 -3.4407 -2.6145 -0.4673 -0.9682 0.3711 1.1036 2.4922 0.0943 0.1861 1.4224 0.4564 -2.4621 -1.7569 1.6218 1.9810 2.8682 1.2802 -0.0732 -1.9703 -1.8789 0.5925 0.1034 0.5287
-4.2146 -1.8654 -0.4195 2.4336 4.1678 -0.1764 -2.9746 -2.0717 1.6117 2.7058 1.9081 0.1689 -0.1270 0.8545 -1.3473 0.1923 2.6566 2.9295 0.3239 3.6996 1.8339 -0.3521 1.4319 2.2243 0.2372 -1.7545 0.4300 -0.1019 -3.0338 -1.7149 -2.0299 -0.9782 -0.2128 0.7624 -3.3883 -2.7487 1.9273 -2.2124 -1.4069 1.9884 -2.9171 -2.6047 -0.7863 -0.6380 0.4240 0.5248 2.9180 0.5413 0.0852 1.5685 0.8492 -3.0217 -1.6606 0.4577 1.9980 2.9102 0.1831 0.6903 -2.2576 -0.8818 -0.2610 0.6623 -0.1404
-3.7682 -1.8300 0.5175 0.9149 2.6776 -1.7980 -2.4968 -0.7752 -1.2109 2.2546 1.7722 -0.1581 0.3175 -0.3472 2.8952 0.1114 3.8395 2.0655 -0.4483 3.6307 0.6685 0.0730 2.4617 2.6931 0.8021 -1.7286 0.3859 0.1130 -3.1081 -1.6027 -1.5238 -1.1922 0.8605 0.6372 -3.2509 -2.8869 1.8586 -1.7895 -1.9313 1.6827 -2.4790 -3.1274 -0.2267 -0.6300 0.5678 -0.1016 2.1916 0.3039 0.1470 1.5417 1.5797 -2.5436 -1.2003 -0.0627 1.1618 2.1829 -0.5355 0.9296 -2.1450 -1.0258 0.1056 0.1779 1.8020
-1.9597 -2.3363 1.9389 2.7236 3.7857 2.2115 -3.0055 -1.0024 0.2542 1.7904 1.7212 2.6149 1.8493 0.4714 -0.3552 -1.2839 3.5170 1.2598 0.0599 4.1682 0.9829 -1.2332 2.1989 0.5145 0.0048 -0.8433 -2.0102 1.0080 -3.0900 -1.4772 -0.6850 -1.0926 0.3798 0.6584 -4.3910 -1.8345 -0.8224 -3.1390 -2.7188 -0.4303 -4.4663 -2.5797 -0.4343 -0.1828 -0.7124 1.0271 3.0239 0.7046 0.1773 1.8860 0.3978 -1.9687 -1.4068 0.7683 1.8511 2.7505 1.9500 0.0165 -2.3176 -2.0644 0.6565 0.7453 -0.2248
-4.2368 -1.5279 -0.6925 2.2091 4.5455 -0.0102 -2.9644 -2.3092 1.1681 2.9182 2.4017 0.4471 -0.0700 0.9656 -1.3522 0.3791 2.5179 3.0009 0.1885 3.5975 1.9496 0.1464 1.2150 2.2610 0.1893 -1.7191 0.3978 0.4131 -1.9572 -2.1253 -2.0132 -0.8140 -0.3471 0.9476 -2.9707 -2.9179 1.0711 -3.6812 -0.9135 1.3548 -4.0231 -2.2310 -0.7881 -0.5619 0.3638 0.5530 2.9416 0.6275 0.3457 1.5224 0.8570 -3.0169 -1.6066 0.1654 2.0153 3.2253 0.3416 0.4993 -2.4666 -0.8376 -0.1409 0.7051 -0.1525
-4.2205 -1.8907 -0.2999 2.8694 2.5577 0.2286 -2.3512 -1.3714 -1.6892 1.5273 3.9759 -0.9878 -0.6930 1.0030 -0.9545 1.2780 2.2115 3.0901 0.8179 3.3993 2.2618 0.6478 1.0048 2.4219 0.1049 -1.7985 0.7905 1.1188 -1.6994 -1.5157 -2.2509 -0.9551 0.6027 1.2511 -2.6484 -2.5277 0.2248 -3.6400 -0.9480 0.7306 -3.8256 -2.2300 -0.8638 -0.6431 0.7879 0.5389 2.8398 0.8773 0.3895 1.4110 1.0536 -2.8366 -1.3893 -0.5645 1.6775 3.1791 -0.0640 0.4349 -2.3823 -0.5217 -0.3954 0.6617 0.1887
-4.1880 -2.1137 -0.0933 2.2849 4.1104 -0.4546 -2.3977 -1.5255 -1.5549 2.5194 1.8215 -0.3900 -0.8543 0.9538 -0.9583 0.9003 2.5608 3.0105 0.7067 3.6173 1.9381 0.1733 1.3460 2.4729 0.2074 -1.7271 0.8180 1.1986 -1.5627 -1.4959 -2.2233 -1.0894 0.7290 1.3581 -2.4921 -2.5221 0.4115 -3.5505 -0.9352 0.9014 -3.6968 -2.2287 -0.8580 -0.6608 0.8228 0.5646 2.8469 0.6317 0.2001 1.4991 1.0319 -2.8385 -1.5539 -0.4118 1.8920 2.8359 -0.1028 0.5655 -2.2883 -0.4981 -0.5241 0.6690 0.1908
-3.4110 -0.9444 0.4082 1.8226 4.8946 0.7550 -2.1917 -0.2501 -1.5243 2.7631 2.8563 1.2621 0.8502 1.3004 -1.2120 -1.2037 2.2777 2.6271 -0.3867 3.4795 2.1973 -0.3731 1.0906 2.1818 0.7745 -1.4151 -1.2495 -0.7284 -3.3176 -1.9023 -1.0530 -0.9976 0.3651 -0.5153 -4.6835 -2.0678 1.3080 -3.9048 -1.2839 0.6924 -5.0794 -1.7092 0.3262 -0.7034 0.0243 0.3561 3.0166 0.9504 0.3716 1.5613 1.0298 -2.1662 -0.6732 -0.3750 1.7760 3.5430 1.0191 0.4678 -2.8578 -1.3658 0.5208 0.8068 -0.1301
-3.5725 -0.9149 2.6787 3.0407 3.3300 1.0602 -2.3208 -2.8556 2.0616 1.4825 2.3509 2.4490 1.6991 -0.4653 0.6317 -1.0578 3.1823 -0.1757 0.4028 3.4634 -0.4780 -1.1480 1.6729 -0.1095 -1.1452 -1.3539 -0.9296 0.3688 -1.0688 -2.9105 -1.5851 -0.7460 1.4170 1.3182 -1.8889 -3.5173 0.4894 -3.0477 -1.9319 1.4236 -3.0837 -2.9629 -0.5775 -1.1229 0.4570 1.1748 2.2575 0.0398 0.1749 1.2366 0.2944 -2.4380 -1.6368 2.0234 1.8767 2.6401 1.3245 -0.1416 -1.8604 -1.8915 0.5351 -0.0887 0.4695
-4.7433 -1.4627 -0.1453 2.3608 3.7445 -0.7940 -3.2038 -2.5477 1.3203 2.6667 1.4964 -0.3902 -0.7919 1.0814 -1.1786 0.2638 2.4810 2.9475 1.1570 3.2102 1.9633 0.0185 1.1275 2.3101 -0.2512 -1.8670 0.3388 1.8612 -2.7158 -0.6846 -2.4515 -0.8576 -0.0972 2.3823 -2.7141 -1.9767 0.5224 -1.6846 -2.1045 1.6162 -2.0973 -2.8582 -1.1408 -0.6461 0.4733 0.7698 2.6457 0.6048 0.2296 1.3229 0.8891 -3.3957 -1.6925 0.4635 2.0287 2.5314 -0.2283 0.6658 -2.0190 -0.8090 -0.5646 0.6632 -0.0439
-3.6191 -1.1407 0.2174 2.0460 4.7925 1.2606 -2.4203 -0.4254 -1.7177 2.8267 2.7067 0.6849 0.0040 1.5035 -1.3082 -0.0883 2.1506 3.2281 -0.1781 3.3977 2.3697 -0.1086 1.0068 2.2340 0.5587 -1.2479 -1.4077 1.1380 -3.6065 -0.7312 -1.2703 -0.9457 0.2423 0.7373 -4.8519 -1.2130 -0.3843 -3.4204 -2.3219 -0.1757 -4.7869 -2.1654 0.0892 -0.5931 -0.1192 0.4418 3.0189 1.0327 0.3623 1.5677 0.9822 -2.3857 -0.7854 -0.5472 1.8960 3.4496 0.9830 0.3796 -2.7131 -1.4712 0.1506 0.9231 -0.2323
-1.9049 -3.2755 2.2825 0.8390 3.5496 2.6661 -3.0423 -2.0933 0.5464 3.0234 3.0286 2.1637 1.5657 -0.1201 0.8559 -0.6536 3.8275 -0.2455 0.8604 3.9477 -0.2821 -0.9274 2.3446 -0.0909 -0.7903 -0.6872 -1.2900 -0.1695 -2.0354 -3.2811 -0.8416 -1.5451 1.0633 0.2602 -3.3451 -3.4764 0.2066 -3.0635 -1.3675 0.5028 -3.9974 -2.3543 -0.7298 -0.4020 0.1977 1.3834 2.7193 0.4436 0.2824 1.7782 0.4746 -2.0210 -2.2432 1.2074 1.8397 3.0946 1.8383 -0.1818 -1.8895 -1.8983 0.4987 0.4074 0.5466
-2.5411 -2.5617 3.3141 3.2293 3.0956 1.1709 -3.5449 -2.1107 1.1957 1.2808 2.7758 2.3606 1.1592 -0.4412 1.2011 -0.5660 3.4235 -0.7273 0.9413 3.3179 -0.8800 -1.0139 2.0272 -0.3457 -1.2283 -1.4635 -0.8531 -0.2936 -1.9144 -3.1172 -1.3272 -1.5069 1.5824 0.9588 -2.3039 -3.5861 1.1991 -1.9805 -1.4964 1.8876 -2.3429 -2.6483 -1.1125 -0.6618 0.4292 1.3666 2.1596 0.0095 0.1491 1.4101 0.2595 -2.5561 -2.0328 1.9160 1.9134 2.7085 1.3119 -0.0865 -1.6852 -1.7619 0.1850 0.0874 0.6651
-4.0865 -1.4172 -0.7365 1.6820 4.6251 -0.0359 -3.2511 0.1143 0.8963 2.7044 2.5871 0.2873 -0.1195 0.8833 -1.3188 0.5283 2.2222 3.0971 0.0767 3.3439 2.1779 0.3047 0.9586 2.2915 0.5704 -1.8024 0.3082 1.0372 -2.2280 -2.1305 -1.7673 -1.1958 -0.3288 1.2228 -3.4027 -2.8572 0.7056 -4.0270 -0.8893 1.0332 -4.5044 -2.1531 -0.5634 -0.7973 0.3507 0.3296 2.8276 0.7674 0.3229 1.3811 0.9034 -3.0110 -0.7412 0.0521 1.7016 3.2932 0.3200 0.6830 -2.6826 -0.8697 -0.1036 0.5623 -0.1321
-3.5552 -1.2781 1.4870 2.0295 4.1734 1.8714 -1.9421 -3.0222 1.7182 0.1081 2.9871 2.3349 2.1553 -0.0693 1.5931 -0.2506 2.5691 -1.3110 1.0535 3.1828 -0.8343 -0.1779 1.1316 -0.8414 0.5404 -2.2392 -0.0407 -1.1493 -2.3283 -1.9028 -1.2527 -0.8888 1.0936 -1.0392 -2.1986 -3.2863 0.9108 -1.8219 -2.5183 0.1779 -1.8923 -3.6990 0.1477 -1.1684 0.9543 1.4488 2.3854 0.4012 0.6590 1.1660 0.3415 -2.1728 -1.8463 1.4602 1.0947 3.1876 1.6348 0.1305 -2.0495 -1.4461 1.0836 0.0200 0.9899
-4.5535 -1.8075 0.0577 2.7076 1.8942 -0.3429 -2.6451 -1.6637 -1.3648 1.3450 3.3824 -1.4473 -1.2303 1.0239 -0.6773 1.5999 2.0103 2.8646 1.3404 3.2009 1.9566 0.5929 0.9613 2.4383 -0.1121 -1.8904 0.7870 1.5610 -1.2172 -0.9626 -2.4651 -1.0573 0.8788 1.9781 -1.8030 -2.1551 0.4106 -3.0462 -1.4188 1.3146 -2.9018 -2.4680 -1.0671 -0.7323 0.9613 0.6546 2.6366 0.7241 0.2792 1.2788 1.0607 -3.1175 -1.5152 -0.2440 1.5849 2.6781 -0.4689 0.5293 -2.0395 -0.5344 -0.7074 0.6077 0.3549
-1.4004 -3.3229 2.2904 2.6437 3.8657 2.4416 -2.8680 -2.2497 0.7433 0.6040 2.9333 2.9708 1.6491 -0.1209 0.4870 -0.2565 3.9086 -0.4133 1.2420 3.8849 -0.1710 -0.6861 2.4567 -0.2998 -0.9031 -0.6470 -1.3800 -1.0453 -3.1382 -1.7758 -0.6567 -1.5423 0.9435 -0.3929 -3.9922 -2.6627 0.5123 -2.0796 -2.9252 0.5482 -3.3974 -3.3738 -0.7171 -0.3692 0.1066 1.4841 2.6773 0.7196 0.3493 1.7979 0.4740 -1.7544 -2.3131 1.2502 1.5027 3.1409 2.1625 -0.4064 -1.9171 -1.9560 0.5518 0.4245 0.3680
-3.0457 -2.1072 2.4393 1.8481 4.3964 2.3450 -2.7870 -2.2200 0.0711 -0.0526 3.1098 2.5064 1.2595 -0.0027 2.0266 0.6778 3.1125 -1.3572 1.7946 3.4675 -0.3938 0.3028 1.6888 -1.0067 0.5323 -1.8309 -0.2646 0.8361 -3.2913 -2.2719 -1.1571 -1.1783 1.3702 0.1424 -3.4577 -3.4692 -0.8942 -1.9292 -2.4101 -0.9048 -2.6627 -3.5924 -0.2950 -0.6959 0.3128 1.6096 2.5621 0.8176 0.6862 1.5249 0.3797 -2.3387 -1.8474 1.1487 1.0158 3.3656 1.9601 0.1316 -2.2896 -1.6155 0.6383 0.2852 1.0038
-1.3996 -3.5281 1.8220 1.8126 2.5625 2.4670 -2.6416 -2.1641 0.3069 3.0655 1.3854 0.9401 -2.3080 0.8093 0.8929 -0.1233 4.4037 0.4544 1.0124 3.6896 -0.2570 -1.1107 3.3182 0.8324 -0.5042 -0.5614 -1.1667 -0.0943 -2.0667 -3.1046 -0.6330 -1.3845 1.2015 0.6538 -3.2258 -3.2926 1.0729 -2.5882 -1.3044 1.3686 -3.5753 -2.2383 -0.2578 -0.3055 0.3078 0.9487 2.2480 0.2140 -0.3756 2.0738 0.7822 -1.6464 -2.2980 1.0093 2.0419 2.0002 1.2331 0.2112 -1.6838 -1.8056 -1.0931 0.8905 0.7055
-3.8937 -1.6141 -0.1230 0.5748 3.5790 -1.2879 -2.6924 -0.4530 -1.8306 2.2845 2.5213 -0.1594 0.5078 -0.8707 2.0675 0.7836 3.3254 2.9227 -0.0912 3.6839 1.7341 0.7781 1.8092 2.9571 0.5048 -0.6726 -1.0481 1.6853 -2.5628 -2.1582 -1.6595 -0.9115 0.2036 1.4523 -3.9323 -2.2610 -0.0406 -3.1909 -0.9394 0.4270 -4.3525 -1.5430 -0.4622 -0.1437 -0.0066 0.0391 2.5110 0.7738 0.4807 1.3986 1.6013 -2.7024 -0.9159 -0.6958 1.1053 2.8462 -0.2479 0.7000 -2.1203 -1.2828 0.2189 0.0658 1.3236
-2.3564 -2.8929 3.1375 1.0118 3.2982 2.2384 -3.5746 -1.7925 1.4020 3.1084 2.4936 1.7394 1.2398 -0.5351 0.9962 -0.5002 3.3736 -0.8059 1.0171 3.3302 -0.7813 -0.9429 1.9686 -0.4485 -1.3115 -1.2742 -0.9726 0.6610 -0.7728 -2.4488 -1.2500 -1.6647 1.4460 1.4833 -1.5815 -3.2308 0.1993 -2.9179 -2.1785 1.2405 -2.8735 -3.1006 -1.0942 -0.6787 0.4063 1.3770 2.1633 0.1189 0.1617 1.3952 0.2962 -2.4885 -2.0533 1.9065 1.9272 2.6541 1.4396 -0.1347 -1.6822 -1.7652 0.2259 0.0425 0.6052
-4.3690 -0.7860 1.4982 2.1999 4.0405 -0.1608 -3.5929 -0.6533 -0.7556 2.3857 1.7902 -0.5868 -0.7687 0.8786 -1.2651 0.6285 2.0399 2.9848 0.5099 3.2109 2.0271 -0.0178 0.8842 2.2530 -0.7765 -1.9350 -0.8929 1.5464 -1.5512 -1.7714 -2.0769 -1.0169 0.9772 2.5998 -2.4116 -2.0704 1.0758 -3.6419 -1.2315 2.3616 -3.6741 -1.7626 -0.8089 -0.9736 0.2767 0.4446 2.6017 0.6329 0.1258 1.1988 0.8466 -3.3219 -0.8018 0.4300 1.7803 2.7300 -0.0794 0.5908 -2.3880 -1.2134 -0.5164 0.4586 -0.1366
-2.3242 -2.8676 3.0621 0.7151 3.4989 2.1578 -0.7337 -3.1795 1.3091 2.7355 2.4031 2.2945 0.9847 -0.5715 1.0003 -0.0792 3.4300 -1.0583 1.3944 3.2748 -0.7236 -0.6843 2.0689 -0.7757 -1.7065 -1.1071 -0.9123 0.1609 -2.6234 -1.6474 -1.7928 -1.1179 1.5622 0.9477 -2.6662 -2.7965 -0.2837 -0.9404 -3.0090 0.7156 -1.6753 -3.6393 -1.3420 -0.4159 0.3846 1.4607 2.1420 0.2866 0.1837 1.4608 0.2130 -1.5220 -2.4319 1.8758 1.7097 2.6797 1.6768 -0.6071 -1.4819 -1.8216 0.0676 0.1204 0.5609
-3.8199 -1.8436 -0.5564 2.8524 3.0029 0.5352 -2.4100 -0.6503 -2.0697 1.4584 4.6730 -0.2088 -0.8812 1.6530 -0.7927 1.2708 1.9458 3.2743 0.7517 3.2618 2.7212 0.7119 0.8848 2.3434 0.3948 -1.1032 -0.9814 1.0046 -3.1881 -2.2055 -1.8138 -0.8354 0.1760 0.7366 -4.5416 -2.0151 -0.0943 -3.5466 -0.3257 0.0791 -4.8021 -0.8994 -0.3997 -0.5060 0.1644 0.5250 3.0077 1.2419 0.4683 1.5671 1.0876 -2.6092 -1.0477 -0.9283 1.6383 3.6413 0.4343 0.4533 -2.5789 -1.0852 -0.3170 1.0061 0.0898
-3.4531 -2.1635 1.0219 2.8892 3.4218 1.5028 -3.0663 -1.8296 3.3507 0.7074 3.0447 2.1384 1.2175 -0.4480 1.7126 0.0607 2.6765 -1.5114 1.5209 2.7094 -1.0999 -0.4908 1.4078 -0.8918 -0.4233 -2.1460 -0.2129 1.3178 -1.6342 -1.9419 -1.3442 -1.3875 1.8944 1.2749 -1.4866 -3.3260 -0.7427 -1.8222 -2.7238 0.0603 -1.5902 -3.8364 -0.8653 -0.9384 0.5984 1.6021 1.9035 0.1868 0.3824 1.1207 0.2297 -2.6264 -1.7649 2.2049 1.6452 2.8434 1.3734 -0.0106 -1.8365 -1.5957 0.3445 -0.0804 0.9259
-3.1483 -2.2740 3.2163 3.1425 2.4776 1.7537 -1.2566 -3.0173 1.9692 0.9714 3.2331 1.9627 0.5663 -0.5542 1.6361 0.1947 2.9559 -1.3980 1.6272 2.5742 -1.0674 -0.6503 1.8413 -0.8129 -1.3059 -1.7124 -0.6730 0.9972 -1.8955 -1.6428 -2.2437 -0.9610 1.4666 1.5183 -1.6532 -2.9115 -0.5376 -1.1032 -3.0233 0.6342 -1.1767 -3.7701 -1.4587 -0.5685 0.3123 1.5436 1.6977 0.1716 0.1716 1.2294 0.2148 -2.1052 -2.1515 2.1529 1.8150 2.5510 1.3905 -0.3299 -1.5094 -1.7587 -0.1455 0.0167 0.8109
-4.0277 -1.0730 -1.1066 2.8382 3.0667 0.7671 -2.5002 -2.1845 0.3555 1.3630 4.7771 0.3336 -0.3172 1.9950 -1.1099 1.3312 1.3332 3.1899 0.8090 2.7458 2.9807 0.7627 0.5239 2.0384 0.5316 -0.8876 -1.3653 0.6871 -3.2149 -0.3999 -1.7983 -0.3245 -0.8552 0.4162 -4.4756 -0.9309 0.0575 -3.1002 -2.5172 0.0387 -4.4535 -2.1967 -0.4391 -0.2892 -0.3621 0.5241 2.8540 1.4924 0.4939 1.4936 0.9951 -2.7044 -1.2755 -0.4413 1.6018 3.6675 0.8056 0.4385 -2.3583 -1.4618 -0.1067 1.1798 -0.2114
-2.6469 -2.7524 2.6989 2.7253 1.8623 2.4123 -2.3194 -2.4672 0.3519 0.6438 2.8436 2.5139 -2.0279 0.5629 -0.1141 0.9940 3.0632 -1.5720 1.9682 2.8822 -0.4233 -0.3468 2.6301 -1.0178 0.7709 -1.4038 0.1479 0.4936 -0.7552 -2.2678 -1.0258 -1.2493 1.8597 0.2669 -1.5002 -3.4224 0.1935 -2.8978 -1.8169 0.0815 -2.7892 -3.1986 -0.1710 -0.5357 0.9493 1.3703 1.7868 0.4466 -0.0370 1.7265 0.0682 -1.9921 -2.1597 1.4918 1.5026 2.2286 1.8905 0.4114 -1.6962 -1.2521 -0.8551 0.6205 0.2539
-4.9528 -0.9974 0.6838 2.8503 1.8465 -0.2336 -3.1580 -2.4129 1.3768 1.5977 3.6039 -1.0382 -1.1306 1.4611 -1.1018 1.4334 1.0794 2.7523 1.3566 2.4984 2.2126 0.4251 0.2846 1.9447 -0.9721 -1.5384 -1.2503 1.2454 -2.3870 -0.3898 -2.7186 -0.5191 0.0995 2.5263 -2.3959 -0.9369 1.2759 -1.5253 -2.4254 2.5897 -1.8909 -2.1564 -1.2914 -0.6925 -0.0322 0.7356 2.3855 0.8326 0.2338 1.0337 0.7206 -3.5196 -1.4091 0.7751 1.7556 2.6791 -0.2442 0.4710 -1.8184 -1.3896 -0.7533 0.7147 -0.1996
-2.5772 -2.6035 2.1381 1.4771 3.8623 3.0651 -2.7905 -1.6859 -0.0555 -0.5564 3.3695 2.0940 1.4268 0.0237 1.9093 0.8086 3.3190 -1.2544 1.7291 3.7226 -0.1149 0.5418 1.8429 -1.0384 0.8814 -1.5037 -0.6436 -0.4938 -1.7212 -2.7484 -0.8006 -1.4197 1.1289 -0.9514 -2.8289 -3.4609 0.1658 -3.6232 -1.8303 -0.5777 -3.9876 -2.9471 -0.0815 -0.6379 0.1478 1.4968 2.7034 0.9887 0.7417 1.6258 0.3795 -2.0938 -1.8547 0.9379 0.6689 3.3341 2.0823 0.2190 -2.2862 -1.7022 0.7658 0.3493 0.9240
-3.7865 -1.9949 -0.2351 2.3979 3.5872 0.1297 -2.6480 -0.5698 -1.7746 0.5515 4.9509 0.2684 -1.0892 1.6404 -0.5668 2.1073 1.6846 2.8070 1.1794 2.8871 2.8245 1.4725 0.7124 1.8300 0.3174 -1.0858 -1.0860 -0.5761 -3.2992 -1.8493 -1.7399 -0.9546 0.3368 -0.0339 -4.5812 -1.9007 1.4162 -3.3812 -0.8991 1.1576 -4.6767 -1.3406 -0.3604 -0.5440 0.1595 0.4919 2.8767 1.4709 0.6333 1.5229 0.9705 -2.6741 -1.0926 -0.6670 1.1275 3.9034 0.5568 0.3850 -2.5606 -1.1722 -0.3296 0.9751 0.1370
-3.0684 -2.4941 2.4394 2.1374 1.6640 2.7271 -0.7449 -2.2260 2.9320 0.0952 2.6941 2.4202 -1.9117 0.6073 -0.9641 1.0771 3.6600 -0.8774 2.0683 2.7652 -0.1571 -0.1167 2.7682 -1.1543 0.5802 -1.4422 -0.0631 -0.1552 -2.8649 -2.0040 -1.6329 -1.3068 0.9857 0.1352 -2.8158 -3.3674 1.0579 -1.0921 -2.5285 0.8552 -1.7679 -3.7264 -0.4704 -0.5576 0.5829 1.2307 1.6945 0.5247 -0.0543 1.7227 -0.1550 -1.6821 -2.0013 2.1747 1.0583 2.0795 1.9754 0.4449 -1.7171 -1.5074 -0.9037 0.6303 -0.2574
-4.2831 -1.6509 1.2521 -0.0690 3.3066 -1.4425 -3.7716 -0.2823 -0.6378 1.7799 2.0063 -0.9935 0.4891 -1.2685 1.7931 1.4560 2.8475 2.4266 0.2564 3.2931 1.6092 1.3724 1.3332 2.4348 -0.5448 -0.8882 -1.3003 0.9023 -2.9335 -1.0543 -2.0454 -1.2389 0.5938 2.1562 -3.2629 -1.5671 1.8055 -1.2492 -2.1647 2.7335 -2.2820 -2.2380 -0.9756 -0.4268 0.0756 -0.0141 2.1501 0.6424 0.5941 0.9846 1.2651 -3.3630 -0.9681 0.2926 0.6845 2.4512 -0.6675 0.7294 -1.6141 -1.4459 0.1074 -0.3071 1.1263
-2.3042 -2.5740 2.4928 2.3255 1.7126 2.5370 -1.9320 -0.2253 2.5065 0.0297 1.7825 2.6802 -1.7520 0.4271 -1.1323 0.2317 4.1254 -0.2465 1.5054 3.4124 0.1729 -0.6955 3.0266 -0.7254 1.0755 -1.1055 -0.5111 0.1328 -1.6234 -2.7987 -1.0008 -1.5246 0.8085 0.2202 -2.7483 -3.6174 1.2146 -3.2747 -1.8077 0.8610 -3.7616 -3.0619 -0.0769 -0.5500 0.2998 1.0951 1.9857 0.5044 -0.2393 1.8274 -0.0572 -1.7238 -1.3038 1.9631 1.0565 1.8173 2.0102 0.7630 -2.0207 -1.6274 -0.7863 0.5946 -0.3897
-3.4081 -1.5398 2.9910 0.3267 3.7449 1.4879 -1.3498 -2.6422 2.4983 2.2245 2.9399 2.5073 0.2698 -0.1097 2.0701 0.6901 2.6168 -1.6765 1.9478 2.5542 -0.8258 -0.2159 1.5241 -1.1406 -0.3405 -2.0157 -0.3065 1.2034 -1.2673 -2.1469 -2.2196 -1.0881 0.9942 1.2525 -1.5361 -3.5134 -0.4876 -2.5349 -2.7941 0.2588 -2.2933 -3.9437 -1.0665 -0.7779 0.1763 1.5285 1.8880 0.4702 0.2600 1.2496 0.2014 -2.2038 -1.8334 2.1547 1.4068 2.8995 1.5907 0.0510 -1.9175 -1.7276 -0.1279 0.1391 0.9328
-3.3761 -1.9584 3.0753 0.5074 3.8542 1.2588 -1.2125 -2.7944 2.5179 2.2930 2.8420 2.2959 0.4508 -0.1781 2.0096 0.3504 2.5836 -1.7462 1.7174 2.5157 -1.0864 -0.4746 1.5000 -1.0791 -0.4782 -2.0806 -0.2798 -0.6671 -1.4563 -2.7192 -2.1710 -1.1017 1.2304 0.2745 -1.3610 -3.7436 1.3599 -2.0068 -2.0285 1.5000 -1.6856 -3.3740 -1.1069 -0.8278 0.2908 1.4841 1.8616 0.2637 0.1958 1.2101 0.1731 -2.1241 -2.0177 2.2596 1.4779 2.8875 1.3765 0.0833 -1.8717 -1.6288 -0.0841 0.0852 0.9340
-3.1423 -1.9682 2.1539 1.7887 2.0283 3.1452 -0.7979 -2.1581 2.5739 -0.4238 2.2363 2.5473 -1.4768 0.8527 -1.3872 1.2980 3.9468 -0.3736 2.1705 2.9831 0.4100 0.2168 3.0739 -0.9786 0.7334 -1.3016 -0.3285 1.4903 -2.6562 -2.2798 -1.5419 -1.1152 0.6332 0.8509 -3.2269 -3.3778 -0.6694 -2.2037 -2.2938 -0.4450 -2.9773 -3.4275 -0.3274 -0.4227 0.3004 1.2474 1.8458 0.8211 0.1320 1.9188 -0.1107 -1.6956 -1.7626 1.8388 0.7522 2.0750 2.2371 0.4697 -1.9947 -1.6080 -0.6300 0.8264 -0.4955
-4.3402 -1.5324 1.2192 1.6783 2.2654 -1.0438 -3.7288 -0.3541 -0.7664 -0.5498 2.6866 -1.4321 0.4425 -1.2715 1.8642 1.9404 2.6967 2.3153 0.7315 3.3075 1.6267 1.6591 1.2075 2.3646 -0.5866 -0.7852 -1.2392 0.8192 -2.8640 -1.0605 -2.0718 -1.1367 0.6674 2.0420 -3.2200 -1.6283 1.7189 -1.1924 -2.1929 2.6162 -2.2476 -2.3138 -0.9822 -0.3464 0.1557 0.1105 2.1836 0.8153 0.7211 0.9563 1.2921 -3.3704 -0.9284 0.2558 0.3648 2.4033 -0.6613 0.6651 -1.5371 -1.4315 0.1201 -0.2913 1.1934
-2.9749 -2.1246 2.7323 0.1993 2.5844 2.4498 -1.6523 -0.1562 2.9976 1.8990 1.0345 2.5286 -1.8019 0.1318 -1.0745 0.4060 3.7518 -0.7361 1.6300 3.0284 -0.1940 -0.5823 2.6505 -1.0570 0.7840 -1.6709 -0.0791 1.9834 -1.9913 -2.2515 -1.3275 -1.5208 1.1401 1.5790 -2.3884 -3.5240 -0.2037 -2.2767 -2.3664 0.2745 -2.5604 -3.6413 -0.2558 -0.7614 0.5473 1.1115 1.7162 0.3686 -0.2209 1.5547 -0.1790 -1.9148 -1.1490 2.3281 1.1133 1.7275 1.8841 0.7927 -1.9061 -1.5393 -0.8386 0.3260 -0.3343
-3.7540 -2.0812 -0.1846 1.1940 5.1198 1.0417 -2.6598 -0.6135 -1.7145 1.5501 3.5304 -0.5826 -1.1710 1.6102 -0.4919 2.1584 1.7213 2.7445 1.1778 2.8779 2.8297 1.4955 0.7305 1.8082 0.3156 -1.0600 -1.0894 -0.5418 -3.2775 -1.8839 -1.7126 -1.0216 0.3745 0.0322 -4.5423 -1.9785 1.4740 -3.3294 -0.9843 1.2404 -4.6202 -1.4504 -0.3520 -0.5612 0.1800 0.4508 2.8832 1.4918 0.5870 1.5215 1.0027 -2.6626 -1.1554 -0.6149 1.1368 3.8403 0.5313 0.4156 -2.5305 -1.2110 -0.3745 0.9575 0.1818
-4.1822 -1.9241 1.1680 1.9270 3.5484 -0.4822 -3.6434 -0.3920 -0.5767 0.1462 4.5801 0.5483 -1.5632 1.5861 0.1791 2.8243 1.0421 1.6123 2.1817 2.3058 2.1569 1.6824 0.2325 1.0363 -0.6784 -1.1090 -1.2635 0.1800 -3.4750 -1.1359 -1.9646 -1.1696 0.8478 1.3033 -4.1010 -1.6735 1.5101 -2.0343 -2.1576 2.1270 -3.2742 -2.2939 -0.7712 -0.6930 0.1866 0.8684 2.4579 1.4099 0.6481 1.1978 0.7275 -3.2512 -1.0781 0.3603 0.9225 3.6317 0.4530 0.3636 -2.1379 -1.4627 -0.6304 0.8056 0.3600
-2.9332 -2.1630 1.7438 0.9361 3.9384 3.2500 -0.6031 -2.6693 1.6899 -0.8902 3.3045 1.9932 1.1452 -0.1590 1.6886 1.2826 3.5615 -0.9326 1.9883 3.6811 0.4053 0.8256 2.1178 -0.9894 0.5886 -1.5604 -0.8269 -0.8752 -3.3557 -1.7957 -1.4349 -0.8693 0.4565 -1.0481 -3.8456 -3.0887 0.2681 -2.1778 -3.2728 -0.3823 -3.1672 -4.0054 -0.2514 -0.4309 -0.2574 1.3397 2.6340 1.2979 0.6888 1.7050 0.3920 -1.5195 -1.9515 1.3069 0.3201 3.3084 2.1892 -0.0367 -2.2620 -1.9658 0.5915 0.3611 0.7214
-2.3959 -2.7563 3.0371 2.9097 0.5184 0.5313 -0.7739 -3.2348 1.3505 1.6260 1.5735 2.1272 -2.6316 1.3025 0.7164 0.5541 3.9605 -0.2417 1.3853 2.8455 -0.8522 -0.7528 3.2974 0.1434 -1.2411 -0.9738 -0.9597 0.2588 -1.0350 -2.9587 -1.8608 -1.1776 1.3694 1.5269 -1.5608 -3.1957 1.0851 -2.0287 -1.1662 2.0613 -2.1609 -2.1472 -1.0113 -0.4599 0.4468 0.8913 1.5673 -0.1906 -0.4347 1.8961 0.3132 -1.5684 -2.4378 1.8347 1.8149 1.2356 0.9635 0.0168 -1.3557 -1.6320 -1.4596 0.9845 0.5104
-4.5655 -1.3780 0.6214 1.0838 4.8246 0.6210 -2.7284 -2.7495 1.2804 0.3614 3.2921 2.1811 -1.0384 1.3520 -0.9444 3.0391 1.0047 1.0160 2.8376 2.3208 0.2813 1.6588 0.4524 1.3062 -0.0812 -1.7283 0.3878 1.1069 -1.4316 -1.8102 -2.3338 -0.6857 0.2794 1.2890 -2.2725 -2.9066 0.0072 -3.3317 -1.5757 0.6459 -3.4228 -2.8095 -0.9435 -0.4958 0.6138 1.3403 2.5084 0.0978 0.7548 1.2479 0.5036 -3.1164 -1.6953 0.7911 0.8717 3.5495 1.0945 0.2419 -2.1423 -0.9912 -0.4313 0.7810 -0.0376
-2.3389 -2.4166 2.9468 1.1742 4.2566 2.3637 -3.2530 -1.4254 0.9779 0.8931 1.9967 2.6802 -1.7804 1.2308 0.7477 2.5489 2.2170 -0.6448 1.7051 3.4468 -0.3535 1.5542 1.0715 -0.6840 -1.0356 -1.2109 -1.1451 0.3267 -3.2912 -1.5585 -0.9419 -1.4372 1.3164 1.1094 -3.7101 -2.6338 0.4742 -1.7358 -3.1214 1.2258 -2.8082 -3.5923 -0.4663 -0.7066 0.1622 0.5261 2.9344 0.4662 0.4054 1.5431 0.0647 -2.2564 -1.7065 1.6333 0.8888 2.9768 1.9412 -0.0481 -2.0017 -1.9106 -0.7113 0.7765 0.3437
-4.2279 -1.6212 0.7816 0.9236 4.8776 1.2087 -3.3301 -0.4357 -1.0839 1.1501 3.4936 -0.6196 -1.5092 1.5949 0.2264 2.8621 1.2007 1.7629 2.1309 2.3787 2.3807 1.7686 0.3401 1.1631 -0.3429 -0.9555 -1.2860 1.6816 -2.4467 -1.4459 -1.9132 -1.1745 0.6171 1.8501 -3.7690 -1.8569 -0.2506 -3.4182 -1.9030 0.7177 -4.3895 -2.1377 -0.6367 -0.6563 0.1685 0.8384 2.5224 1.5895 0.6729 1.2515 0.9044 -3.1254 -1.0069 -0.0192 0.9979 3.6477 0.5877 0.3054 -2.2702 -1.4745 -0.5633 0.8364 0.4360
-4.4736 -1.3154 1.1058 1.8099 2.1674 -1.0139 -3.7324 -0.2182 -0.8818 -0.3900 2.6301 -1.5015 0.2963 -1.2811 1.9126 1.9667 2.6210 2.3342 0.8116 3.2726 1.5944 1.6140 1.1483 2.4035 -0.6022 -0.8311 -1.2297 1.8423 -1.0663 -1.7267 -2.1696 -1.0415 0.6325 2.6559 -2.1706 -1.9675 0.7552 -2.9654 -1.4238 2.0460 -3.3298 -1.7936 -1.0220 -0.3278 0.1360 0.1682 2.1622 0.7812 0.7030 0.9175 1.3031 -3.4405 -0.7823 0.1665 0.4856 2.3410 -0.6887 0.6305 -1.6289 -1.3540 0.0450 -0.3016 1.2114
-3.2658 -2.1763 2.5997 0.5905 3.1488 2.2060 -0.9019 -2.3964 2.8652 1.7399 1.2359 2.7682 -1.9944 0.6186 -0.9363 1.1586 3.4771 -1.0397 2.1076 2.5407 -0.3130 -0.1378 2.7023 -1.1753 0.4891 -1.4478 0.0207 0.9186 -0.7997 -2.3690 -1.7571 -1.3172 0.9916 0.9304 -1.5289 -3.5555 0.2483 -2.8816 -2.0569 0.5350 -2.7816 -3.4147 -0.5869 -0.5642 0.6240 1.2153 1.5856 0.4571 -0.1052 1.6951 -0.1368 -1.8399 -1.9792 2.1969 1.2020 1.9497 1.9244 0.4434 -1.7070 -1.4318 -0.9899 0.6261 -0.2248
-3.5305 -2.0779 1.1158 -0.3323 4.2471 0.7952 -1.2682 -2.5422 1.7119 0.1554 3.8298 3.0058 0.2379 0.1129 2.0891 2.2736 2.9264 -0.8591 2.4927 3.2623 0.6057 1.4707 1.6404 -0.8491 0.5114 -1.5436 -0.4638 0.0988 -1.9011 -2.9280 -1.7496 -0.7746 0.2685 -0.2088 -3.0409 -3.6708 -0.1184 -3.6900 -1.6454 -0.3483 -4.1341 -2.9424 -0.4244 -0.3841 -0.1749 1.3520 2.5874 1.3452 0.7729 1.6340 0.4211 -2.0531 -1.8481 1.0776 0.3328 3.6010 1.8115 0.1309 -2.3691 -1.6240 0.2044 0.4642 0.9100

>  <OB_ATOM_TYPES> (1mcqB1)
C.3 N.am O.2 O.2 O.2 C.3 C.3 C.3 C.3 N.ar N.am C.ar C.ar N.ar C.3 C.3 N.am C.2 C.2 C.ar C.2

>  <ENSEMBLE_RMSD> (1mcqB1)
1.497 1.516 1.567 1.649 1.654 1.666 1.671 1.679 1.679 1.705 1.721 1.742 1.748 1.788 1.798 1.804 1.822 1.830 1.876 1.883 1.886 1.887 1.903 1.910 1.942 1.943 1.945 1.988 2.044 2.073 2.077 2.082 2.093 2.100 2.100 2.110 2.117 2.144 2.145 2.152 2.154 2.165 2.196 2.214 2.223 2.260 2.263 2.270 2.287

$$$$
