
 OpenBabel03071213D

 11 12  0  0  0  0  0  0  0  0999 V2000
   47.6270   99.6430   -4.1920 C   0  0  0  0  0
   51.9360   97.9030   -7.0260 N   0  0  0  0  0
   48.5800   98.3630   -7.9150 C   0  0  0  0  0
   49.6170   98.9970   -3.7470 C   0  0  0  0  0
   49.8920   98.0910   -8.0920 N   0  0  0  0  0
   47.8720   98.6150   -6.7930 N   0  0  0  0  0
   50.6170   98.5600   -4.4540 N   0  0  0  0  0
   48.4370   99.0940   -4.4510 N   0  0  0  0  0
   50.6520   98.1240   -6.9600 C   0  0  0  0  0
   48.7250   98.6550   -5.7220 C   0  0  0  0  0
   50.0720   98.4220   -5.7310 C   0  0  0  0  0
  1  8  1  0  0  0
  2  9  1  0  0  0
  3  5  2  0  0  0
  3  6  1  0  0  0
  4  7  2  0  0  0
  4  8  1  0  0  0
  5  9  1  0  0  0
  6 10  2  0  0  0
  7 11  1  0  0  0
  8 10  1  0  0  0
  9 11  2  0  0  0
 10 11  1  0  0  0
M  END
>  <MOLID> (1mrgA1)
1mrgA1

>  <SMILES_CANONICAL> (1mrgA1)
Nc1ncnc2c1ncn2C	

>  <FINGERPRINT> (1mrgA1)
0000000000000000000000000000101000000000100000000001100000000000000000000000100000000000000000000000100000001000000001100010000000000000000010000000000001000000000000000000000011000000000000000000000000000000100000000000000000000000000000000000100000000000000000000100000000000001000000000000000000000000000000001000000000000000000000001000000000001100000000000000000000010000000000000000000000000000000100000000000000000000000000000000000000000000000000000000100000000000100000000001000000001100000000000000110000000000000000000000000000000000000000000000000000000000000000000000000001000000000000000000000010000000001000000000000000000000100000000000000000000000000000000001000000000000000000000100000000100001100000000000000001000000000000000000000000000000000001000000000000000000000000000000000000000000000000000000000000000000000000000000000000000000000000000000000000000000000000000000000000000000000000000000000000001000000000000100011000000000000000001100000000000000000000000000000000000000000000000000000011000000

>  <MACCS166> (1mrgA1)
000000000000000000001000010000000000010000001000000000000000000010000000001111110011100000001001011000001001000000000011110010000010101010001100000110100001010110101000

>  <OB_MW> (1mrgA1)
149.07

>  <OB_logP> (1mrgA1)
0.5267

>  <OB_PSA> (1mrgA1)
69.62

>  <OB_MR> (1mrgA1)
40.9894

>  <OB_ATOMIC_CHARGES> (1mrgA1)
0.1335227545 -0.1054221047 0.2015772832 0.1798194878 -0.2040311225 -0.2048397721 -0.2193326214 -0.2923366835 0.1918766352 0.1674605688 0.1517055748

>  <MCT_HBD> (1mrgA1)
1

>  <MCT_HBA> (1mrgA1)
5

>  <ENSEMBLE_TOTAL> (1mrgA1)
1

>  <ENSEMBLE_COORDS> (1mrgA1)
-1.8300 1.0551 1.7246 2.4790 -0.6849 -1.1094 -0.8770 -0.2249 -1.9984 0.1600 0.4091 2.1696 0.4350 -0.4969 -2.1754 -1.5850 0.0271 -0.8764 1.1600 -0.0279 1.4626 -1.0200 0.5061 1.4656 1.1950 -0.4639 -1.0434 -0.7320 0.0671 0.1946 0.6150 -0.1659 0.1856

>  <OB_ATOM_TYPES> (1mrgA1)
C.3 N.pl3 C.ar C.ar N.ar N.ar N.ar N.ar C.ar C.ar C.ar

>  <ENSEMBLE_RMSD> (1mrgA1)
0.000

$$$$
