
 OpenBabel03071213D

 19 21  0  0  0  0  0  0  0  0999 V2000
   17.2740    0.1670   37.7280 N   0  0  0  0  0
   16.5000   -8.2800   40.1350 O   0  0  0  0  0
   15.1730   -5.3460   40.5370 O   0  0  0  0  0
   13.7780   -8.4070   36.7490 O   0  0  0  0  0
   18.3360   -2.7110   37.6900 N   0  0  0  0  0
   17.0920   -6.7810   37.8070 O   0  0  0  0  0
   14.9470   -7.5880   36.6600 C   0  0  0  0  0
   14.6950   -1.9030   39.0430 C   0  0  0  0  0
   18.4240   -4.0470   37.9680 N   0  0  0  0  0
   15.3520   -0.8200   38.6070 N   0  0  0  0  0
   15.1290   -3.1500   39.1270 N   0  0  0  0  0
   15.5310   -7.6480   39.2700 C   0  0  0  0  0
   15.4960   -6.0710   39.3420 C   0  0  0  0  0
   16.0060   -7.7890   37.8080 C   0  0  0  0  0
   16.9810   -5.8540   38.9370 C   0  0  0  0  0
   16.5790   -0.9130   38.0870 C   0  0  0  0  0
   17.1270   -2.2220   38.0810 C   0  0  0  0  0
   17.2870   -4.4160   38.5600 C   0  0  0  0  0
   16.4330   -3.2660   38.6900 C   0  0  0  0  0
  1 16  1  0  0  0
  2 12  1  0  0  0
  3 13  1  0  0  0
  4  7  2  0  0  0
  5  9  1  0  0  0
  5 17  1  0  0  0
  6 14  1  0  0  0
  6 15  1  0  0  0
  7 14  1  0  0  0
  8 10  2  0  0  0
  8 11  1  0  0  0
  9 18  2  0  0  0
 10 16  1  0  0  0
 11 19  2  0  0  0
 12 13  1  0  0  0
 12 14  1  0  0  0
 13 15  1  0  0  0
 15 18  1  0  0  0
 16 17  2  0  0  0
 17 19  1  0  0  0
 18 19  1  0  0  0
M  END
>  <MOLID> (1mrkA1)
1mrkA1

>  <SMILES_CANONICAL> (1mrkA1)
O=C[C@H]1O[C@H]([C@@H]([C@@H]1O)O)c1n[nH]c2c1ncnc2N	

>  <FINGERPRINT> (1mrkA1)
0000000000000101000000000000101010000001000000000101100000001001101000000000000000110001100000100100100010001001000001110011000000000001000010000000000111010000000000000000000011000000000000100000010000000000101000000000000000000000000000000000101100000000000100001100000000001011000000000000000100001100000000000100000000100001000100001000000000000100010000000000001011010000010000000001110000000000100100000010101000000000001000010000100000000000000000000000110000000000000000000010101000001110001000000000110000011000000000010000100000000001100001100000000000000000000011000000000101100001001000000000000001000000011001100000010001000001010000000001000000000001001000000010100000000000000000100110000010100101100000000001100011000000000010000100000000000000000101000000000000010100001001000000000110000000000000000010000000000000000010000001101000000000000000001000000000000000000010001010000000000100010000000000001000001110000000000100011001000000000000101100000000000000000000000000000000000010001000000000110011100000

>  <MACCS166> (1mrkA1)
000000000000000000001000010000000000010000001000000101001000010010000001000111110011000010000111111000001000000000000011100110100110101110110110010001110101111010111000

>  <OB_MW> (1mrkA1)
265.081

>  <OB_logP> (1mrkA1)
-1.1231

>  <OB_PSA> (1mrkA1)
147.24

>  <OB_MR> (1mrkA1)
61.7767

>  <OB_ATOMIC_CHARGES> (1mrkA1)
-0.1054146646 -0.2171903386 -0.2172534538 -0.2855378489 -0.1436306751 -0.3393803797 0.2393521172 0.2002517204 -0.1481495933 -0.2040619849 -0.2209323792 0.219435906 0.2177297224 0.2126001144 0.1915231606 0.1921410819 0.1563415429 0.1292989267 0.1228770259

>  <MCT_HBD> (1mrkA1)
4

>  <MCT_HBA> (1mrkA1)
9

>  <ENSEMBLE_TOTAL> (1mrkA1)
3

>  <ENSEMBLE_COORDS> (1mrkA1)
1.0561 4.7483 -0.7365 0.2821 -3.6987 1.6705 -1.0449 -0.7647 2.0725 -2.4399 -3.8257 -1.7155 2.1181 1.8703 -0.7745 0.8741 -2.1997 -0.6575 -1.2709 -3.0067 -1.8045 -1.5229 2.6783 0.5785 2.2061 0.5343 -0.4965 -0.8659 3.7613 0.1425 -1.0889 1.4313 0.6625 -0.6869 -3.0667 0.8055 -0.7219 -1.4897 0.8775 -0.2119 -3.2077 -0.6565 0.7631 -1.2727 0.4725 0.3611 3.6683 -0.3775 0.9091 2.3593 -0.3835 1.0691 0.1653 0.0955 0.2151 1.3153 0.2255
1.1266 4.8430 -0.4401 -0.5507 -4.1604 1.6394 1.3837 -1.8910 2.2896 -2.0357 -3.3062 -2.2839 2.1863 2.0249 0.0148 -0.4372 -1.5330 -0.7117 -1.8503 -3.4370 -1.0826 -1.7467 2.6714 -0.4172 2.1805 0.6332 0.1640 -1.0583 3.7728 -0.5061 -1.2497 1.3995 -0.2236 -0.2997 -3.0584 0.9185 0.5878 -2.0164 1.2180 -0.8991 -2.7455 -0.2779 0.4510 -1.0746 0.2253 0.3258 3.7103 -0.3596 0.9211 2.5282 -0.1510 0.9393 0.2475 0.0894 0.0252 1.3918 -0.1052
-0.0152 5.0203 -0.0040 0.5316 -4.4434 0.7973 1.4766 -1.8567 2.1174 -2.7329 -3.5504 -1.5279 -0.6739 2.4097 1.4530 -0.8830 -1.4729 -0.4793 -1.5212 -3.6036 -1.3727 1.4974 2.3700 -1.9160 -0.7523 1.0312 1.6948 1.1548 3.5783 -1.5725 1.1739 1.2003 -1.2609 0.1664 -3.1859 0.5077 0.5993 -1.9969 1.1131 -0.7432 -2.8342 -0.4600 -0.0674 -0.9628 0.4972 0.3950 3.7577 -0.4179 0.0372 2.6920 0.3145 -0.1121 0.4351 0.7300 0.4688 1.4122 -0.2138

>  <OB_ATOM_TYPES> (1mrkA1)
N.pl3 O.3 O.3 O.2 N.ar O.3 C.2 C.ar N.ar N.ar N.ar C.3 C.3 C.3 C.3 C.ar C.ar C.ar C.ar

>  <ENSEMBLE_RMSD> (1mrkA1)
0.000 1.004 2.065

$$$$
