
 OpenBabel03071213D

 18 18  0  0  0  0  0  0  0  0999 V2000
   -0.3210    9.9210   14.8530 N   0  0  0  0  0
   -5.4810   -0.1960   16.3680 N   0  0  0  0  0
   -4.7400    6.6270   13.7020 O   0  0  0  0  0
   -5.6140    0.9170   18.3280 O   0  0  0  0  0
   -7.5650    1.0530   16.8410 O   0  0  0  0  0
   -1.4040    8.9380   15.1510 C   0  0  0  0  0
   -1.2520    7.7410   14.3840 C   0  0  0  0  0
   -1.8310    7.8870   13.0870 C   0  0  0  0  0
   -2.3250    6.6220   12.5270 C   0  0  0  0  0
   -2.7930    5.5650   13.4120 N   0  0  0  0  0
   -3.7740    3.4010   14.8250 C   0  0  0  0  0
   -5.8860    4.4990   15.1780 C   0  0  0  0  0
   -4.2120    2.2590   15.5740 C   0  0  0  0  0
   -6.3690    3.3820   15.9300 C   0  0  0  0  0
   -4.1490    5.6240   13.9260 C   0  0  0  0  0
   -4.6220    4.4630   14.6630 C   0  0  0  0  0
   -5.5310    2.2360   16.1440 C   0  0  0  0  0
   -6.0600    0.9440   17.0300 S   0  0  0  0  0
  1  6  1  0  0  0
  2 18  1  0  0  0
  3 15  2  0  0  0
  4 18  2  0  0  0
  5 18  2  0  0  0
  6  7  1  0  0  0
  7  8  1  0  0  0
  8  9  1  0  0  0
  9 10  1  0  0  0
 10 15  1  0  0  0
 11 13  1  0  0  0
 11 16  2  0  0  0
 12 14  2  0  0  0
 12 16  1  0  0  0
 13 17  2  0  0  0
 14 17  1  0  0  0
 15 16  1  0  0  0
 17 18  1  0  0  0
M  END
>  <MOLID> (1okmA1)
1okmA1

>  <SMILES_CANONICAL> (1okmA1)
NCCCCNC(=O)c1ccc(cc1)S(=O)(=O)N	

>  <FINGERPRINT> (1okmA1)
0000000000000000000000000001000000000000100000000001100000000000000000010001000000000001000000000000000010110001000001100000000000000000000000000000000000001000000000000000000000000000000000000000000000000000000000000000000000100010000000000001000000000000000000000010000000000000000000000000000000000000000010001100000000000000001000000010000000000000011000000000001010000000000000000000000000000000100010000000001000000000000000000000000000000001100000000010000000000100000000000000000000000000000000000000000000000000000000000000000000000000000000100000000000000000000000010000000000000000000000000000000000000000000000000010001000000001100000000000000000000000000000000001100000001110100001100000000000000000000000000000000000000000000010000100000000000000000111000000000000000000000000000000000011000000000000000000000000000000000000000000000000000000000000001001000000000000000000000010100000000000000000000000000100000000001000000000011000000000000000011010000000000100000000000000000000000000000000010000001000100000

>  <MACCS166> (1okmA1)
000000000000000000000000000000011000000000000000011000100111100100100000100100001101000101110100001101010100011100001100000100001110000101010100011100101111011010111000

>  <OB_MW> (1okmA1)
271.099

>  <OB_logP> (1okmA1)
2.675

>  <OB_PSA> (1okmA1)
123.66

>  <OB_MR> (1okmA1)
67.561

>  <OB_ATOMIC_CHARGES> (1okmA1)
-0.1313865699 0.0392101976 -0.2683688981 -0.1502951101 -0.1502951101 0.1093644164 0.0223210861 0.0249714052 0.1155201357 -0.2016681734 0.0059357953 0.0059357953 0.0201527074 0.0201527074 0.2647813378 0.0551199586 0.1250507842 0.0934975348

>  <MCT_HBD> (1okmA1)
3

>  <MCT_HBA> (1okmA1)
6

>  <ENSEMBLE_TOTAL> (1okmA1)
50

>  <ENSEMBLE_COORDS> (1okmA1)
2.6431 4.2487 1.3601 -0.4592 -4.4671 1.9858 -0.8904 2.1747 -1.7486 -1.7801 -2.8201 3.4081 -2.8974 -3.9158 1.4535 3.1866 3.4250 0.2970 2.1961 3.3944 -0.8402 2.7871 2.6101 -1.9893 1.7037 2.1068 -2.9135 1.0095 0.9887 -2.3248 -0.1312 -1.1922 -0.9647 -1.3997 0.3566 0.4022 -0.5043 -2.2495 -0.0413 -1.7555 -0.6282 1.2438 -0.1834 1.1740 -1.6618 -0.5365 0.0709 -0.7338 -1.2722 -1.9754 1.0302 -1.7163 -3.3016 2.0374
4.6835 5.5001 -1.3125 -1.8156 -5.0698 0.6590 -1.2045 1.9726 -1.3111 -1.0953 -4.1310 2.9346 -3.4460 -3.7451 2.1338 3.2745 5.2014 -1.1309 3.1401 3.8534 -0.4641 2.9974 2.7585 -1.4963 1.5424 2.5136 -1.8104 1.0269 1.4306 -1.0127 0.0071 -0.5711 0.7441 -1.8620 -0.8094 -0.7817 -0.4187 -1.7973 1.4005 -2.2798 -1.9155 -0.1428 -0.3282 1.2063 -0.9198 -0.6695 -0.1117 -0.3265 -1.5277 -2.4361 0.9820 -2.0246 -3.8494 1.8549
2.4562 6.0442 -0.4066 -1.5956 -5.1809 1.0992 -0.0716 2.2111 -0.5047 -2.2240 -3.7106 3.0656 -3.6717 -3.7220 1.0217 3.1962 5.0650 -1.1850 2.2778 3.8922 -1.4030 3.0070 2.7173 -2.0097 2.0003 1.6829 -2.4665 1.5884 0.8423 -1.3661 -0.1381 -1.2781 -0.6723 -0.8801 0.0029 1.2470 -0.8229 -2.4435 -0.1264 -1.5737 -1.0535 1.7096 0.4406 1.1035 -0.6445 -0.1327 -0.1104 0.0022 -1.5132 -2.3324 1.0247 -2.3429 -3.7299 1.6146
4.1472 3.8032 1.2404 -1.2162 -4.7923 1.4748 -1.1438 1.0960 -2.7835 -0.9247 -3.1114 3.3951 -3.1817 -3.4009 2.3378 3.9299 4.0929 -0.1639 2.4711 3.8809 -0.4778 2.3386 3.4357 -1.9135 0.9542 2.8980 -2.1638 0.8287 1.5472 -1.6768 0.3208 -0.8609 -0.2109 -2.0413 -0.4969 -0.6112 -0.0429 -1.8675 0.7815 -2.3735 -1.4472 0.2748 -0.3443 0.8599 -1.8800 -0.6444 -0.1693 -0.8500 -1.3418 -2.1381 1.0166 -1.7357 -3.3293 2.2104
2.2927 4.9278 -0.2172 -0.6771 -3.9801 2.7812 -0.3478 2.5156 -0.4753 -3.1549 -3.4119 2.4501 -1.9444 -4.6904 0.6594 3.4728 4.1365 -0.5171 3.0587 2.6958 -0.6869 2.9455 2.3343 -2.1514 1.5038 2.3479 -2.6106 0.7603 1.2430 -2.0542 0.0703 -1.0220 -0.5683 -1.6078 0.2322 0.6468 -0.4090 -2.2260 0.0899 -2.0268 -0.8776 1.2766 -0.0346 1.4228 -0.9429 -0.5269 0.1610 -0.3267 -1.4242 -2.1580 0.9732 -1.9509 -3.6509 1.6734
2.9538 3.6496 0.6403 -0.7928 -3.9987 2.8677 -0.5873 2.3352 -0.9359 -3.2447 -3.3694 2.4612 -2.0254 -4.7314 0.7361 3.0942 4.5254 -0.5095 3.2415 3.6841 -1.7539 1.8882 3.4176 -2.3692 1.7247 1.9447 -2.6789 1.3368 1.1929 -1.5072 0.0543 -1.1516 -0.6017 -1.4507 0.2033 0.7284 -0.4642 -2.3269 0.0812 -1.9410 -0.8861 1.3423 0.0792 1.3036 -0.9581 -0.4009 0.0733 -0.2717 -1.4355 -2.2011 1.0075 -2.0302 -3.6644 1.7214
3.6206 5.9209 -0.8110 -1.0560 -4.1844 2.8626 -0.1347 2.3399 -0.0610 -3.4622 -3.6797 2.1440 -1.9436 -4.9023 0.5636 3.0519 4.6041 -0.5895 3.3743 3.7425 -1.7859 2.8231 2.3514 -1.5888 1.5464 2.1919 -2.3826 0.7299 1.1341 -1.8388 0.0927 -1.1596 -0.3438 -1.7400 0.0485 0.6817 -0.4560 -2.3871 0.2063 -2.2193 -1.0846 1.2239 0.0351 1.2801 -0.6578 -0.5477 0.0097 -0.1515 -1.5717 -2.3538 0.9609 -2.1427 -3.8717 1.5675
4.9328 5.1862 -0.3399 -2.5632 -4.8465 1.2335 -0.6874 0.7946 -2.8555 -0.6864 -4.0931 2.7832 -2.9356 -2.9847 2.9381 3.6446 4.7498 0.1668 3.1875 3.5834 -0.6707 1.7993 3.8389 -1.2039 1.3330 2.6272 -1.9715 0.4759 1.8163 -1.1440 -0.0155 -0.4437 0.4278 -1.7554 -1.1636 -1.0934 -0.4116 -1.5163 1.3293 -2.0864 -2.1815 -0.2824 -0.2923 0.8158 -1.6921 -0.6805 -0.2524 -0.7290 -1.3882 -2.3728 0.9707 -1.8705 -3.5577 2.1331
2.8806 4.6769 0.1335 -1.1239 -4.7896 1.7854 0.5319 2.1985 0.0632 -2.9588 -3.3681 2.8847 -3.2556 -4.1231 0.5055 2.0710 4.9142 -1.0488 2.7304 4.2393 -2.2281 1.9169 3.0490 -2.6814 2.4453 1.7869 -2.0336 1.3630 0.9055 -1.6619 -0.4229 -1.1114 -0.8098 -0.5102 -0.0923 1.3864 -1.1261 -2.2592 -0.2596 -1.1735 -1.1473 1.8872 0.6160 1.1229 -0.5255 -0.0961 -0.0779 -0.0100 -1.4917 -2.2747 1.0371 -2.3962 -3.6498 1.5758
2.5862 5.1406 0.1357 -1.2727 -4.8965 1.4882 0.7260 2.1059 0.1451 -2.7618 -3.4549 2.9979 -3.4969 -3.9202 0.6392 2.1140 5.0696 -1.2350 2.9509 4.0594 -1.9819 2.0617 3.0254 -2.6309 2.4255 1.6450 -2.1297 1.2437 0.9036 -1.7561 -0.5430 -1.0759 -0.8310 -0.3614 -0.1906 1.4165 -1.2639 -2.2144 -0.2807 -1.0387 -1.2351 1.9195 0.6548 1.0766 -0.5231 -0.0809 -0.1120 -0.0105 -1.5039 -2.2884 1.0434 -2.4395 -3.6381 1.5936
3.3468 2.4093 0.9164 -1.2850 -4.7229 1.3562 -0.8546 0.9955 -2.9366 -0.7153 -3.1640 3.3096 -3.0759 -3.2583 2.4542 3.4959 3.7367 0.3464 3.3562 3.6506 -1.1546 1.9396 3.9662 -1.5710 1.3330 2.7795 -2.2801 0.4981 2.0297 -1.3720 0.1712 -0.2842 0.2091 -1.9079 -0.7607 -0.9407 -0.1566 -1.3412 1.1572 -2.1782 -1.7715 -0.0979 -0.3456 1.0381 -1.8190 -0.6890 0.0224 -0.7826 -1.2873 -2.0578 1.0067 -1.6456 -3.2674 2.1987
4.6541 4.9883 -1.4760 -2.6435 -4.8657 0.4193 -0.3055 1.4733 -1.7755 -1.2722 -4.6063 2.5804 -3.4820 -3.4193 2.3763 3.3119 5.5263 -1.6108 2.3951 4.4345 -2.1085 1.6791 3.7811 -0.9498 2.2148 2.3799 -0.7504 1.2470 1.5528 -0.0712 0.3738 -1.0437 0.6415 -1.7486 -0.5929 -0.4404 -0.2224 -2.2296 1.2440 -2.2893 -1.7013 0.0887 0.1964 0.9918 -0.7620 -0.3700 -0.2347 -0.1391 -1.4963 -2.5511 0.9542 -2.2424 -3.8834 1.7791
2.9178 5.7631 -0.5919 -3.3562 -4.3602 0.4710 -0.4185 2.0685 -0.7671 -1.2894 -4.9482 1.8764 -3.0305 -3.4033 2.8372 2.8999 5.3936 -1.9964 3.4531 3.9965 -2.1471 2.3485 2.9692 -2.0717 2.4363 2.2427 -0.7472 1.6446 1.0377 -0.7686 0.4233 -1.0788 0.6505 -1.7316 -0.4028 -0.2295 -0.2037 -2.2888 1.1643 -2.3111 -1.5116 0.2563 0.2884 1.0893 -0.5384 -0.3050 -0.1815 -0.0429 -1.5125 -2.5092 0.9396 -2.2535 -3.8763 1.7057
3.1993 4.4958 0.3629 -2.2988 -4.7765 0.6699 2.0342 0.9787 -0.5690 -1.6022 -4.0278 3.0202 -3.6705 -3.0392 1.9750 3.2738 4.8306 -1.0478 2.7243 3.6929 -1.8707 1.2286 3.8289 -2.0300 0.6480 2.5407 -2.5650 0.0638 1.7640 -1.4982 0.5000 -0.7850 0.9705 -1.1888 -0.7122 -0.7741 -0.2263 -1.8857 1.5893 -1.8629 -1.7214 -0.1980 0.8251 0.8828 -0.7585 0.0228 -0.2071 -0.1499 -1.3619 -2.3323 1.0189 -2.3083 -3.5273 1.8544
3.7757 4.1038 -0.1901 -1.8930 -4.9340 0.6226 0.9477 2.0571 0.3627 -1.7494 -4.0243 3.0068 -3.6937 -3.3579 1.5540 2.5832 4.7152 -0.7493 2.5127 4.3545 -2.2131 1.3049 3.4924 -2.4900 1.6978 2.0332 -2.4566 0.6803 1.2579 -1.7930 -0.1230 -0.2942 1.3701 -0.7347 -0.9823 -0.8727 -0.8071 -1.4695 1.8843 -1.3476 -2.0785 -0.3963 0.5819 1.1849 -0.4198 -0.0828 -0.0609 0.0440 -1.3723 -2.3426 1.0296 -2.2805 -3.6548 1.7067
2.0532 5.5948 -0.4639 -1.2522 -4.7530 2.0392 1.1559 1.8516 0.4004 -3.2868 -3.3185 2.6663 -3.1273 -4.2654 0.3437 3.0735 4.6070 -0.7651 2.9137 4.1709 -2.2019 2.7553 2.6705 -2.2793 1.2917 2.3166 -2.4302 0.9891 1.0701 -1.7662 -0.0909 -1.2982 -0.6434 -0.7813 -0.0353 1.3049 -0.8691 -2.4207 -0.1412 -1.4774 -1.0815 1.7786 0.7521 1.0209 -0.4102 -0.0764 -0.1337 0.0342 -1.5349 -2.3161 1.0261 -2.4879 -3.6799 1.5081
4.0659 6.3386 -1.2188 -3.1970 -4.6226 0.5837 -0.3003 1.3343 -1.9182 -1.2393 -4.8583 2.2279 -3.1570 -3.3335 2.8092 3.9784 4.8980 -1.3663 2.6031 4.5433 -1.8780 2.3547 3.0662 -1.6854 1.5996 2.8430 -0.3935 1.2622 1.4509 -0.2234 0.3414 -1.0790 0.6116 -1.7644 -0.6770 -0.5184 -0.2601 -2.2438 1.2464 -2.3102 -1.7647 0.0478 0.1859 0.8954 -0.8783 -0.3915 -0.3033 -0.2119 -1.5236 -2.5926 0.9398 -2.2480 -3.8947 1.8261
3.5103 4.9651 1.0774 -3.3465 -3.2868 2.4550 -1.2195 1.7056 -2.0973 -1.5404 -4.7902 1.4322 -0.9457 -3.2605 3.3354 3.6260 4.5382 -0.3051 2.6204 3.4406 -0.5427 2.8144 2.8480 -1.9179 1.4877 2.4210 -2.4985 1.0241 1.1925 -1.8983 0.2810 -0.6609 0.0908 -1.9719 -0.7134 -0.7921 -0.0796 -1.7663 0.9655 -2.3074 -1.7161 0.0365 -0.3163 1.0099 -1.6377 -0.6234 -0.1646 -0.7754 -1.3365 -2.2519 0.9672 -1.6765 -3.5102 2.1049
2.9591 5.7068 -0.1267 -1.3097 -4.9533 1.5625 0.5643 0.5555 -2.5098 -2.2480 -3.3250 3.3048 -3.6182 -3.8670 1.2693 3.7475 4.9512 -1.0840 3.3498 3.4983 -1.0063 2.2125 3.2124 -1.9580 0.8967 3.1460 -1.2134 0.7066 1.8555 -0.5984 -1.0743 -1.2157 -1.0834 -0.0621 -0.3943 0.9628 -1.6894 -2.2838 -0.3127 -0.6458 -1.3747 1.6738 0.3470 0.7349 -1.3152 -0.3077 -0.2952 -0.4676 -1.5013 -2.3463 1.0202 -2.3270 -3.6054 1.8821
3.4696 4.6687 -0.1040 -1.3476 -4.3521 2.7304 0.6995 2.0644 0.3871 -3.6602 -3.4575 2.0485 -2.3206 -4.7807 0.3850 2.7185 5.2168 -1.2198 2.8164 4.2672 -2.3898 1.6297 3.3320 -2.4200 2.0898 1.9235 -2.1111 0.9803 1.1006 -1.6907 0.1215 -1.3177 -0.4314 -1.1930 0.0292 1.0946 -0.5991 -2.4860 0.0487 -1.8405 -1.0562 1.5507 0.5556 1.1155 -0.3806 -0.1917 -0.0975 0.0443 -1.5492 -2.3612 0.9959 -2.3790 -3.8089 1.4622
2.3539 5.5644 -0.2858 -1.3131 -4.7686 2.1053 1.1680 1.7842 0.4467 -3.3986 -3.3349 2.5906 -3.1095 -4.3308 0.3029 3.3373 5.0782 -1.2372 2.6264 4.3151 -2.3278 2.6337 2.8315 -2.0414 1.2801 2.2529 -2.3953 1.0470 0.9982 -1.7196 -0.1144 -1.3421 -0.6418 -0.7523 -0.1112 1.3454 -0.9089 -2.4575 -0.1519 -1.4716 -1.1493 1.8022 0.7770 0.9533 -0.3698 -0.0601 -0.1976 0.0656 -1.5598 -2.3658 1.0245 -2.5352 -3.7200 1.4875
4.4221 5.4446 -0.1878 -1.0949 -4.7354 2.2262 1.2760 0.3614 -2.1167 -2.9622 -3.1705 3.0159 -3.2201 -4.3874 0.8310 3.6524 4.9688 -1.3224 2.4472 4.2296 -0.8010 1.7819 3.4740 -1.9232 0.3616 3.1104 -1.5546 0.3189 1.9379 -0.7144 -0.4529 -1.5477 -1.0031 -0.5921 -0.1570 0.9803 -1.1243 -2.6084 -0.2693 -1.2269 -1.1349 1.6498 0.5280 0.6618 -1.1906 -0.2146 -0.3621 -0.4100 -1.5185 -2.4000 1.0023 -2.3815 -3.6852 1.7876
3.2310 4.5436 0.0862 -2.9671 -4.4524 0.3946 0.5800 2.1988 0.1875 -1.3091 -4.5750 2.3288 -3.3498 -3.1188 2.5429 2.2190 4.8664 -0.9037 2.6457 4.2719 -2.2223 1.6790 3.1982 -2.6582 2.1901 1.8438 -2.2260 1.1059 1.0279 -1.7421 -0.3228 -0.1750 1.3308 -0.4769 -1.1470 -0.8853 -1.0054 -1.3461 1.8554 -1.0732 -2.2432 -0.3872 0.5772 1.1671 -0.4772 -0.0680 -0.0785 0.0118 -1.3945 -2.3328 1.0236 -2.2608 -3.6489 1.7406
4.2560 3.4845 0.3676 -1.6070 -4.9015 1.1495 0.4351 0.8363 -2.5444 -1.2696 -3.5362 3.2899 -3.4180 -3.2957 2.0033 3.5969 3.1691 -0.8862 2.6194 4.2756 -1.2000 1.5504 3.7578 -2.1318 0.2619 3.4934 -1.3837 0.3033 2.2229 -0.6982 -0.1591 -0.0964 0.8227 -1.0133 -1.2049 -1.1553 -0.6739 -1.1999 1.6205 -1.4482 -2.2425 -0.4226 0.1691 1.0241 -1.3599 -0.3586 -0.0774 -0.5102 -1.2692 -2.2449 1.0154 -1.9755 -3.4642 2.0233
4.5706 5.2755 -2.2364 -1.4694 -4.4798 2.7273 -0.1570 2.2091 0.2892 -3.7384 -3.8304 1.7157 -2.0451 -4.9979 0.2700 3.4042 5.5038 -1.4019 2.2978 4.5761 -1.8420 2.3604 3.2729 -1.0804 1.7046 2.1822 -1.8995 1.3184 1.0658 -1.0694 0.2813 -1.3092 0.0584 -1.7283 -0.1180 0.7015 -0.3751 -2.5461 0.4515 -2.3238 -1.2591 1.0832 0.2633 1.1579 -0.1897 -0.3807 -0.1393 0.1500 -1.6252 -2.5191 0.9534 -2.3577 -4.0444 1.3192
5.1601 4.7972 -0.5222 -1.3177 -3.7799 3.2748 -1.3028 1.7854 -1.6137 -3.4144 -4.1232 1.8263 -1.2227 -5.0711 1.0463 4.3329 4.9025 -1.7109 2.9041 4.6093 -1.3312 2.5717 3.1547 -1.5804 1.1756 2.9181 -1.0683 0.8717 1.5235 -0.8949 0.1155 -1.0607 -0.0204 -2.2081 -0.3726 -0.0073 -0.2858 -2.2802 0.6613 -2.5764 -1.5062 0.6112 -0.4453 1.1341 -1.0195 -0.8064 -0.1261 -0.3189 -1.5803 -2.4923 0.9691 -1.9716 -4.0125 1.6986
3.5372 4.6884 0.3732 -2.1849 -3.1952 3.3529 -1.4309 2.0350 -1.5053 -2.8867 -4.4525 1.2314 -0.4832 -4.5222 1.9554 4.1570 4.3191 -0.8872 3.6891 2.9366 -1.2723 2.5846 3.0091 -2.3010 1.2435 2.9305 -1.6144 0.8254 1.5646 -1.4172 0.0736 -0.4671 0.4653 -2.0533 -0.6326 -0.6818 -0.2615 -1.6935 1.1748 -2.3766 -1.7401 0.0062 -0.5027 1.3069 -1.1597 -0.7666 0.0162 -0.4704 -1.4360 -2.3135 0.9455 -1.7281 -3.7897 1.8047
4.0843 6.4757 -1.2825 -1.4441 -5.1124 1.5648 0.8652 0.4469 -2.1986 -2.6347 -3.5152 3.1719 -3.7112 -4.0630 0.9682 3.7954 5.1084 -0.8942 2.6505 4.6077 -1.7375 2.3479 3.1772 -1.3721 0.9199 3.0492 -0.8967 0.7010 1.7563 -0.2959 -0.9240 -1.3608 -1.0172 -0.2255 -0.5208 1.1485 -1.6152 -2.4448 -0.3380 -0.8788 -1.5159 1.7728 0.4736 0.6235 -1.0488 -0.2723 -0.4232 -0.3018 -1.6132 -2.5047 1.0083 -2.5189 -3.7842 1.7489
4.7146 4.6296 -0.8158 -1.1669 -3.4362 3.3272 0.9725 0.6551 -2.3543 -3.4238 -3.4481 2.1104 -1.5537 -4.8776 1.2342 3.7405 3.7641 -0.1768 2.7100 3.3668 -1.2032 1.3665 3.9366 -0.8143 0.2797 3.3382 -1.6732 -0.2405 2.1440 -1.0574 0.3394 -1.3040 -0.4160 -1.7139 -0.0747 -0.0139 -0.2020 -2.3982 0.3734 -2.1951 -1.0748 0.7435 0.1933 0.8915 -1.4364 -0.3876 -0.1853 -0.5981 -1.4240 -2.2875 0.9295 -2.0091 -3.6396 1.8412
4.2739 3.7840 0.3915 -1.0159 -3.5445 3.2465 0.9450 0.6866 -2.4147 -3.3783 -3.2437 2.2724 -1.7767 -4.8092 1.1375 3.4362 3.2265 -0.6530 2.4145 4.2601 -1.0628 1.5619 3.6931 -2.1739 0.1597 3.3843 -1.6937 0.1323 2.1980 -0.8673 0.2522 -1.3791 -0.6199 -1.4220 0.1024 0.3103 -0.3169 -2.4620 0.1683 -1.9318 -0.8947 1.0531 0.3296 0.9345 -1.3818 -0.2673 -0.1385 -0.5397 -1.3692 -2.2274 0.9755 -2.0271 -3.5705 1.8519
4.3508 5.8647 -2.4677 -2.9175 -4.8285 0.5220 -0.2767 1.2213 -2.0616 -1.1981 -4.7258 2.4227 -3.3205 -3.3838 2.6086 3.8812 4.5774 -1.9898 2.8359 4.8036 -0.9243 2.5854 3.5149 -0.1725 1.1989 3.0259 -0.5069 1.0175 1.6317 -0.1970 0.2163 -0.9151 0.7418 -1.7059 -0.8474 -0.7324 -0.3607 -2.0894 1.3809 -2.2237 -1.9454 -0.1596 0.1086 0.9053 -0.9374 -0.4464 -0.2943 -0.2536 -1.5154 -2.6049 0.9188 -2.2297 -3.9103 1.8078
4.1717 3.5984 -0.3402 -1.0159 -4.5241 2.5956 1.6588 0.8685 -1.3623 -3.2159 -3.2534 2.5832 -2.5470 -4.5755 0.5581 3.7377 4.3570 -1.5004 2.4823 3.7480 -2.0794 1.2703 4.1397 -1.2641 0.0864 3.2825 -1.6491 -0.0977 2.2213 -0.6892 0.5715 -1.1658 0.2233 -1.6043 -0.1293 -0.0703 -0.0909 -2.3162 0.8174 -2.2113 -1.1724 0.5205 0.5697 1.0204 -0.8165 -0.1548 -0.1056 -0.1800 -1.4260 -2.2955 0.9939 -2.1846 -3.6984 1.6594
5.1767 4.6773 -0.2874 -2.3621 -2.9499 3.3535 -1.0887 1.0903 -2.6805 -2.7252 -4.5427 1.3742 -0.4304 -4.3179 2.3579 3.8407 4.2880 0.1254 3.2706 3.4027 -0.9525 1.8603 3.8306 -1.2772 1.1574 2.7213 -2.0177 0.3795 1.9205 -1.1052 0.0716 -0.5484 0.2387 -2.1026 -0.8085 -0.7980 -0.2327 -1.6977 1.0780 -2.3633 -1.8975 -0.0551 -0.5270 1.0064 -1.5912 -0.8382 -0.1034 -0.6498 -1.3968 -2.3587 0.9220 -1.6898 -3.7124 1.9650
4.7570 3.8997 -0.8323 -1.9673 -5.0807 0.9207 0.6655 0.7271 -2.2828 -1.4711 -3.9283 3.1494 -3.6069 -3.3919 1.9345 3.8322 4.8974 -1.3403 2.5824 4.2039 -1.8272 1.5495 4.1706 -0.7248 0.3640 3.3365 -1.1443 0.3532 2.0797 -0.4371 -0.3172 -0.2622 0.9903 -0.8595 -1.3655 -1.0958 -0.9067 -1.3912 1.6975 -1.3659 -2.4224 -0.4411 0.2889 0.8885 -1.1239 -0.3260 -0.2304 -0.3573 -1.3869 -2.4433 1.0067 -2.1850 -3.6877 1.9077
3.9895 6.0321 -1.1022 -2.2491 -5.0078 0.2990 1.3375 1.5832 0.7487 -2.0353 -4.4270 2.7812 -3.9102 -3.4142 1.4375 3.5553 5.1475 -2.1682 2.1928 4.6059 -1.8151 2.1987 3.0995 -1.9035 0.7792 2.5805 -1.9365 0.7203 1.2237 -1.4471 -0.0877 -0.6612 1.5474 -0.7873 -1.0488 -0.7412 -0.8551 -1.8312 1.9516 -1.4871 -2.1330 -0.3694 0.7254 0.9376 -0.0977 -0.0562 -0.2809 0.2536 -1.5012 -2.5553 1.0180 -2.5296 -3.8507 1.5436
2.1931 6.2377 -1.0172 -3.9353 -3.2452 1.7161 0.1591 2.1352 -0.3959 -2.3157 -4.8839 0.5927 -1.7798 -4.0061 2.8925 1.8491 4.8487 -1.2523 3.0621 4.1248 -1.7855 2.6800 2.7347 -2.2359 2.9194 1.7394 -1.1215 1.8726 0.7454 -1.0841 0.1425 -1.4164 -0.5458 -1.1193 -0.0129 0.9745 -0.5959 -2.5675 -0.0401 -1.8181 -1.0687 1.4194 0.6441 1.0127 -0.5211 -0.0829 -0.1905 -0.0319 -1.5636 -2.3885 0.8789 -2.3115 -3.7987 1.5572
4.2187 3.7659 -1.3709 -1.1655 -4.5602 2.4574 1.4553 0.3260 -2.0456 -3.2297 -3.0722 2.7812 -3.0480 -4.4856 0.7109 3.5022 4.8534 -0.7280 2.1945 5.0793 -1.4482 1.0852 4.3134 -0.7638 0.8342 3.0368 -1.5272 0.5609 1.9305 -0.6470 -0.2740 -1.5688 -0.9553 -0.5765 -0.1390 0.9772 -1.0068 -2.6159 -0.2604 -1.2652 -1.1036 1.6121 0.7225 0.6403 -1.1109 -0.0824 -0.3693 -0.3704 -1.5023 -2.3826 0.9698 -2.4231 -3.6482 1.7192
3.7773 6.7792 -1.7685 -3.0045 -4.9429 0.7308 1.2543 -0.0431 -2.2360 -1.8394 -4.2894 2.8899 -3.8451 -2.9918 2.1314 2.9408 6.0072 -0.8649 2.8569 4.5958 -1.3879 2.0869 3.6941 -0.4504 1.4086 2.6391 -1.2915 1.0116 1.4924 -0.5183 -0.8648 -1.4820 -1.0447 0.0313 -0.7400 1.0857 -1.6526 -2.4758 -0.3331 -0.7051 -1.6534 1.7421 0.7914 0.2822 -1.1464 -0.0737 -0.6328 -0.3602 -1.5695 -2.5578 1.0085 -2.6044 -3.6807 1.8133
3.9878 3.5346 1.2380 -2.3501 -2.6542 3.3621 -1.4416 1.5138 -2.4407 -2.4417 -4.4044 1.4897 -0.2479 -3.9171 2.5998 3.7342 2.9997 -0.0860 2.7354 3.8981 -0.7709 2.4367 3.3497 -2.1450 0.9809 2.9695 -2.2516 0.7550 1.6357 -1.7474 0.0918 -0.2617 0.2470 -1.8849 -0.8854 -1.0038 -0.1823 -1.3671 1.1560 -2.1609 -1.8784 -0.1422 -0.5180 1.1112 -1.7358 -0.7087 -0.0468 -0.8160 -1.2644 -2.1478 0.9646 -1.5212 -3.4495 2.0821
4.4110 5.1278 -1.7900 -1.8787 -3.6990 3.2069 1.6114 0.7697 -1.3720 -3.6943 -3.7065 1.3981 -1.5871 -5.0268 1.0269 3.8541 4.1146 -0.9122 2.6484 3.5180 -1.5899 1.3818 4.0809 -0.9902 0.1846 3.2723 -1.4327 -0.0359 2.1657 -0.5336 0.5163 -1.2937 0.1584 -1.6236 -0.1546 0.0302 -0.1669 -2.4534 0.7069 -2.2470 -1.2177 0.5665 0.5621 0.9433 -0.7592 -0.1828 -0.1852 -0.1528 -1.4992 -2.4139 0.9031 -2.2542 -3.8414 1.5357
3.6466 5.9621 -2.9323 -1.7597 -5.2926 1.2329 2.1169 0.4017 -0.6543 -2.9150 -3.7064 2.8425 -3.7315 -3.8656 0.4776 3.6179 4.8563 -1.9926 2.3447 4.9600 -1.1926 2.0409 3.6453 -0.5221 0.8452 2.9893 -1.1710 0.3676 1.8975 -0.3600 0.2320 -1.6715 -0.3662 -1.0672 -0.1501 1.0105 -0.6090 -2.7596 0.1049 -1.8472 -1.1582 1.4372 0.9473 0.6463 -0.3737 0.0021 -0.4144 0.0595 -1.6051 -2.5109 0.9771 -2.6263 -3.8292 1.4225
3.0226 6.3494 -1.2560 -2.5691 -4.8065 0.5312 2.4435 0.4125 -0.1828 -2.3091 -3.9523 2.9283 -4.0336 -2.9038 1.4374 2.2264 5.3365 -0.5867 1.6086 4.4443 -1.6345 2.4042 3.1669 -1.7549 1.5623 2.0820 -2.3860 0.7496 1.4244 -1.3908 -0.7757 -0.8897 -0.7473 0.4701 -1.0245 1.3272 -1.7172 -1.8540 -0.1992 -0.3719 -1.9540 1.8077 1.2718 0.4712 -0.5468 0.2532 -0.4562 0.0063 -1.5234 -2.3656 1.0325 -2.7123 -3.4806 1.6144
3.6535 6.1345 -1.2109 -2.6634 -3.2952 3.1853 -0.6042 1.6879 -1.7657 -3.3786 -4.3250 0.9483 -1.0741 -4.8018 1.8461 3.8264 4.7464 -0.8238 2.4756 4.1403 -0.5330 1.9779 3.3738 -1.7352 2.3389 1.9078 -1.6470 1.4370 1.1885 -0.7799 -1.5328 -0.8021 -0.8634 0.1421 -0.6997 0.8917 -2.1215 -1.9526 -0.1924 -0.3967 -1.7667 1.5052 0.1043 0.9758 -1.0603 -0.4309 -0.2168 -0.3554 -1.5717 -2.4104 0.9489 -2.1819 -3.8845 1.6415
4.8728 3.9553 -0.4237 -1.2185 -3.4435 3.3897 -1.1431 1.6377 -2.1019 -3.3910 -3.6637 2.0409 -1.3381 -4.8984 1.2750 3.5917 4.5218 -0.0429 2.7060 4.5587 -1.2636 1.5241 3.6445 -1.0616 1.6016 2.4883 -2.0288 1.0468 1.3042 -1.4261 -1.9517 -0.3345 -0.2888 0.3559 -1.0492 -0.0786 -2.3406 -1.4820 0.5128 -0.0047 -2.0935 0.6855 -0.3030 1.0255 -1.4497 -0.6534 -0.1296 -0.5814 -1.4031 -2.3239 0.9869 -1.9517 -3.7178 1.8564
1.4314 5.1558 -0.3026 -3.5689 -3.8041 0.4614 0.6248 2.1619 0.0435 -1.5604 -4.8123 1.7002 -3.0388 -3.1705 2.8978 2.6655 5.0844 -1.0645 2.4725 4.1439 -2.2302 2.9864 2.7625 -1.8926 2.0497 1.7211 -2.4661 1.6712 0.7543 -1.4631 -1.1610 0.0710 0.6417 0.5463 -1.4831 -0.0958 -1.9229 -1.0584 1.1544 -0.1703 -2.5259 0.3556 0.7752 1.0520 -0.4571 0.0184 -0.1343 0.0231 -1.4449 -2.3092 1.0103 -2.3745 -3.6089 1.6841
4.1710 2.3625 -1.9105 -1.1025 -3.7602 3.2293 -0.6486 1.5267 -2.1987 -3.2800 -3.8020 1.9104 -1.2374 -4.8743 0.9311 4.1963 3.6594 -1.2580 2.8679 4.3395 -1.4836 1.9871 4.1497 -0.2712 0.6725 3.5330 -0.6791 0.6478 2.1224 -0.3798 0.2646 -0.6308 0.4091 -1.9490 -0.4490 -0.5602 -0.1733 -1.8529 1.0689 -2.3400 -1.5899 0.0305 -0.1925 1.2882 -1.0828 -0.6086 0.0721 -0.3382 -1.4314 -2.3059 0.9000 -1.8440 -3.7887 1.6830
4.0583 1.7940 0.1596 -1.1416 -2.9855 3.5815 -0.8553 1.2025 -2.7980 -2.9244 -3.7971 1.9624 -0.5420 -4.4755 1.6006 3.7708 3.2086 0.0103 3.1473 3.4312 -1.3454 1.8164 4.1235 -1.1744 0.7357 3.3575 -1.8959 0.1890 2.3146 -1.0616 0.0594 -0.1621 0.3278 -1.9209 -0.7216 -0.9500 -0.2101 -1.3141 1.1766 -2.1378 -1.8112 -0.1939 -0.4776 1.2507 -1.6295 -0.7787 0.1416 -0.6827 -1.2785 -2.0989 0.9361 -1.5101 -3.4582 1.9763
2.7691 6.1451 -1.0702 -3.1075 -3.2796 2.9715 -0.0430 1.2351 -2.0775 -3.2759 -4.5241 0.7374 -1.1659 -4.7184 2.0984 3.5083 5.2476 -1.9407 3.7093 3.9311 -1.2300 2.5940 2.9720 -1.5681 1.6597 2.8330 -0.3869 1.2859 1.4522 -0.1986 -0.9266 -1.2340 -1.0548 -0.4200 -0.3985 1.1652 -1.5855 -2.3810 -0.4430 -1.0145 -1.4630 1.7277 0.2876 0.8713 -0.9529 -0.3503 -0.2916 -0.2821 -1.6470 -2.4714 0.8989 -2.2778 -3.9257 1.6056
1.5672 6.3541 -2.7138 -2.5663 -4.8589 0.0515 2.0712 1.0256 1.1258 -2.5392 -4.2024 2.5040 -4.0633 -2.9976 0.9231 2.4641 5.4848 -1.9755 1.8380 4.1156 -1.9150 2.7340 3.1765 -1.1457 2.5454 1.7564 -1.6282 1.3498 1.1773 -1.0657 -0.0336 -1.2445 -0.5100 -0.3578 -0.4375 1.7562 -1.0250 -2.2714 -0.2462 -1.2313 -1.4266 2.0110 1.3328 0.6681 0.2122 0.2598 -0.3345 0.4400 -1.5755 -2.3817 0.9770 -2.7705 -3.6034 1.1991
3.4660 4.3670 1.4934 -2.7910 -2.4586 3.2061 -0.6972 0.6173 -3.1064 -2.6171 -4.3678 1.5071 -0.6317 -3.7953 2.9302 3.5387 4.4370 0.0462 2.2076 4.0317 -0.5328 2.4321 3.3326 -1.8519 1.1480 2.7082 -2.3375 0.9437 1.4341 -1.6969 -1.7733 -0.7295 -0.8734 0.4883 -0.8459 -0.0023 -2.1690 -1.7281 0.1105 0.1119 -1.7427 0.9246 -0.1176 0.6220 -2.0249 -0.4967 -0.3009 -0.9232 -1.2581 -2.2121 0.9770 -1.7845 -3.3690 2.1543

>  <OB_ATOM_TYPES> (1okmA1)
N.3 N.3 O.2 O.2 O.2 C.3 C.3 C.3 C.3 N.am C.ar C.ar C.ar C.ar C.2 C.ar C.ar S.O2

>  <ENSEMBLE_RMSD> (1okmA1)
0.887 0.917 0.929 0.945 1.056 1.068 1.108 1.120 1.200 1.209 1.220 1.225 1.233 1.252 1.266 1.271 1.275 1.281 1.284 1.301 1.328 1.333 1.373 1.401 1.408 1.416 1.430 1.432 1.444 1.449 1.449 1.451 1.497 1.499 1.502 1.524 1.529 1.588 1.594 1.601 1.621 1.628 1.654 1.677 1.717 1.726 1.754 1.757 1.830 1.831

$$$$
