
 OpenBabel03071213D

  9  8  0  0  0  0  0  0  0  0999 V2000
   28.0760   70.9870   11.0390 O   0  0  0  0  0
   31.1700   69.8960   14.8920 O   0  0  0  0  0
   33.2970   69.8230   13.6570 O   0  0  0  0  0
   29.8860   70.0780   10.1620 O   0  0  0  0  0
   31.6660   67.9750   13.3100 O   0  0  0  0  0
   29.7460   70.1730   12.5240 C   0  0  0  0  0
   31.1470   70.2090   12.5440 O   0  0  0  0  0
   29.2060   70.4510   11.1440 C   0  0  0  0  0
   31.8840   69.4060   13.7090 P   0  0  0  0  0
  1  8  1  0  0  0
  2  9  1  0  0  0
  3  9  1  0  0  0
  4  8  2  0  0  0
  5  9  2  0  0  0
  6  7  1  0  0  0
  6  8  1  0  0  0
  7  9  1  0  0  0
M  END
>  <MOLID> (1pdzA1)
1pdzA1

>  <SMILES_CANONICAL> (1pdzA1)
OC(=O)COP(=O)(O)O	

>  <FINGERPRINT> (1pdzA1)
0000000000000000000000000000000000000000000000000000000000000000000000000000000000000000000000000000000000000000000000000000000000000000000000000000000000000100000000000000000000000000000000000000000000000000010000000000000000000000000000000000000000000000000000000000000000000000000000000000000000000000000000000000000000000000000000000000000000000000010000000000000001000000000000000000000010000000100000000000000010000000000000100000000000100000000000000000000000000000000000000000000000001000000010000000100000000000000010000000000000100000000000000000000000000000000000000000000000000000000000000000000000000000000000000100000000000010000000000000000000000000000000000000010000000000000010100000000000000100000000000000000000000000000000000000000000000000000000000000000000000000000000000000000000000000000000000000000000000000000000100000000000000000000000000000000000000001000000000000000000000000000000000000000000000000000000000000000000000010000000000000000000000000000000000000000000000000000000001000000000000000

>  <MACCS166> (1pdzA1)
000000000000000000000000000010000000000000100001000000000000000000000001000000000000000001000000000001010100000100000000001101000111000101110000010100001110101000010000

>  <OB_MW> (1pdzA1)
155.982

>  <OB_logP> (1pdzA1)
-0.8197

>  <OB_PSA> (1pdzA1)
113.87

>  <OB_MR> (1pdzA1)
25.5719

>  <OB_ATOMIC_CHARGES> (1pdzA1)
-0.2428285866 -0.1145254957 -0.1145254957 -0.2428285866 -0.222372616 0.2668500869 -0.2579114271 0.395025305 0.5331168159

>  <MCT_HBD> (1pdzA1)
3

>  <MCT_HBA> (1pdzA1)
6

>  <ENSEMBLE_TOTAL> (1pdzA1)
2

>  <ENSEMBLE_COORDS> (1pdzA1)
-2.5993 1.0983 -1.5144 0.4947 0.0073 2.3386 2.6217 -0.0657 1.1036 -0.7893 0.1893 -2.3914 0.9907 -1.9137 0.7566 -0.9293 0.2843 -0.0294 0.4717 0.3203 -0.0094 -1.4693 0.5623 -1.4094 1.2087 -0.4827 1.1556
-2.4171 -0.1240 -1.5897 0.3062 0.5977 1.9555 2.5696 -0.5565 1.3604 -1.3993 1.6470 -0.5776 0.3933 -1.6952 0.9953 -0.0933 -0.2300 -1.4003 0.9489 0.2028 -0.5496 -1.3411 0.5580 -1.1270 1.0328 -0.3998 0.9330

>  <OB_ATOM_TYPES> (1pdzA1)
O.co2 O.3 O.3 O.co2 O.2 C.3 O.3 C.2 P.3

>  <ENSEMBLE_RMSD> (1pdzA1)
0.000 1.163

$$$$
