
 OpenBabel03071213D

 22 23  0  0  0  0  0  0  0  0999 V2000
   43.8870   41.6180   20.8140 C   0  0  0  0  0
   45.1620   45.6880   15.1660 O   0  0  0  0  0
   46.1460   39.7180   12.2870 Cl  0  0  0  0  0
   43.9180   44.4600   13.3040 Cl  0  0  0  0  0
   44.5650   42.1510   19.5370 C   0  0  0  0  0
   45.6130   43.2360   19.8420 C   0  0  0  0  0
   45.5460   44.4000   18.8360 C   0  0  0  0  0
   45.8480   43.9270   17.4040 C   0  0  0  0  0
   46.8280   44.8590   16.6610 C   0  0  0  0  0
   47.0170   46.3650   14.5890 C   0  0  0  0  0
   48.2710   45.2150   11.3040 C   0  0  0  0  0
   48.0570   45.0380   12.6390 C   0  0  0  0  0
   47.2880   41.5220   13.9290 C   0  0  0  0  0
   47.3450   42.7550   14.5760 C   0  0  0  0  0
   47.2550   46.9960   12.0900 C   0  0  0  0  0
   45.2020   42.1660   12.9090 C   0  0  0  0  0
   47.7730   46.3820   10.9750 N   0  0  0  0  0
   47.4320   46.1660   13.1330 N   0  0  0  0  0
   46.2160   41.2260   13.0910 C   0  0  0  0  0
   45.2480   43.4040   13.5600 C   0  0  0  0  0
   46.3340   43.7140   14.4080 C   0  0  0  0  0
   46.4470   45.0460   15.1690 C   0  0  0  0  0
  1  5  1  0  0  0
  2 22  1  0  0  0
  3 19  1  0  0  0
  4 20  1  0  0  0
  5  6  1  0  0  0
  6  7  1  0  0  0
  7  8  1  0  0  0
  8  9  1  0  0  0
  9 22  1  0  0  0
 10 18  1  0  0  0
 10 22  1  0  0  0
 11 12  2  0  0  0
 11 17  1  0  0  0
 12 18  1  0  0  0
 13 14  2  0  0  0
 13 19  1  0  0  0
 14 21  1  0  0  0
 15 17  2  0  0  0
 15 18  1  0  0  0
 16 19  2  0  0  0
 16 20  1  0  0  0
 20 21  2  0  0  0
 21 22  1  0  0  0
M  END
>  <MOLID> (1phaA1)
1phaA1

>  <SMILES_CANONICAL> (1phaA1)
CCCCCC[C@](c1ccc(cc1Cl)Cl)(Cn1cncc1)O	

>  <FINGERPRINT> (1phaA1)
0000000000000000100000000000001000000001000000000000001000000000100000000000000000000001000000100000000000000001000001100000000000000000000010000000000001000000000000000000000001000000001000000000000000000000000000000000000000000000000000000000000000000000000000000001000000001001000000000000000000001000000010001100000000001000000100001000000000001000010000000000000110001001100000000000001000000000000100001010010000000000101000000000010000000000000000000000000000000000100000000000000000001100100000000000110010000000000000000000000000000000000000100000000000000000000000000000000001000000001000000000000000000000000000000000000000000001100000000000000000010101000010000001100000000000000000010011000000100011000000000000000000000000100001010100000000000000000100000000000000000000001000000000000010000000000000000000001000000000000000000000010000000000000000000000000000000000000000000011000000000100000000000000000000000010000000000100011000000000000010100100000000001010000000000000000000000000000000100000010000000000

>  <MACCS166> (1phaA1)
000000000000000000000000000000000000000000001000010000000000000011000000001111000010101001100011001000110011000101110111110010011011010011111101011111011010111110111000

>  <OB_MW> (1phaA1)
340.111

>  <OB_logP> (1phaA1)
5.0481

>  <OB_PSA> (1phaA1)
38.05

>  <OB_MR> (1phaA1)
92.6898

>  <OB_ATOMIC_CHARGES> (1phaA1)
0 -0.2191475289 -0.0822172751 -0.0824665372 4.8e-09 1.1859e-06 9.3855e-05 0.0029320683 0.0366699876 0.1420729096 0.119280947 0.0981126543 0.0112024526 -0.0001616739 0.1786801145 0.022543045 -0.2222917661 -0.3049372899 0.0584937252 0.0568587665 0.0175246051 0.1667557497

>  <MCT_HBD> (1phaA1)
1

>  <MCT_HBA> (1phaA1)
3

>  <ENSEMBLE_TOTAL> (1phaA1)
48

>  <ENSEMBLE_COORDS> (1phaA1)
-1.2677 -2.9914 4.7837 -1.7902 1.7950 0.5360 -0.5850 -4.4289 -1.7073 -2.5286 0.5156 -2.2095 -0.3623 -2.1608 3.9091 -0.6921 -0.7001 4.0856 0.3821 0.1454 3.4485 -0.2582 1.2886 2.7024 0.4267 1.4875 1.3686 -0.0115 2.3123 -0.9170 3.1914 2.3823 -2.3741 2.4476 2.5198 -1.2546 0.3163 -2.3584 -0.1908 0.3068 -1.0770 0.2122 1.2961 1.5491 -2.8725 -1.4420 -1.9037 -1.7857 2.4842 1.7703 -3.4055 1.2301 1.9124 -1.5366 -0.5970 -2.7832 -1.2272 -1.4429 -0.5156 -1.3517 -0.6130 -0.0924 -0.3668 -0.4909 1.3332 0.1532
-1.2183 -2.8770 4.7614 -1.8852 1.7165 0.4458 -0.3234 -4.5265 -1.5558 -2.6160 0.2532 -2.1849 -0.3236 -2.0204 3.9008 -0.7060 -0.5699 4.0563 0.3448 0.3075 3.4226 -0.3296 1.3965 2.6273 0.3446 1.5532 1.2831 -0.1380 2.2422 -1.0408 2.5427 1.8823 -3.2923 1.2815 1.5360 -2.9543 0.4523 -2.3487 -0.1245 0.3712 -1.0543 0.2265 2.3106 2.5564 -1.2836 -1.3677 -2.0732 -1.6907 3.2080 2.5271 -2.2529 1.1388 1.8977 -1.6195 -0.4534 -2.8726 -1.1213 -1.4471 -0.6703 -1.3129 -0.6198 -0.1540 -0.3707 -0.5665 1.2981 0.0804
-0.5315 -1.9198 4.2994 -2.1452 0.8246 0.4886 -0.1940 -4.6181 -2.8488 -2.4371 0.2210 -2.6079 0.0622 -0.7410 5.0307 -0.6214 0.5311 4.5929 0.3241 1.3499 3.7468 -0.3060 1.6523 2.4094 0.0153 0.5454 1.4291 -0.3428 1.8547 -0.6672 2.6105 2.3030 -2.5226 1.3876 1.7345 -2.4477 0.3272 -2.8797 -0.8230 0.1832 -1.7066 -0.1842 2.0432 2.4951 -0.4784 -1.2095 -2.1684 -2.5484 3.0438 2.7853 -1.2905 1.0322 1.7841 -1.1047 -0.3986 -3.1144 -2.0506 -1.3666 -0.9018 -1.8513 -0.7007 -0.6547 -0.6963 -0.7761 0.6236 0.1248
1.2560 -2.3984 4.2568 -2.3029 1.7031 -0.1840 -0.5444 -4.5820 -1.8265 -2.2203 0.3526 -2.9841 0.9991 -0.9194 4.1153 -0.4811 -0.6726 3.9612 -0.7224 0.7871 3.6643 -1.4406 0.9301 2.3457 -0.4698 1.4148 1.2907 -0.1540 2.1567 -1.0427 3.1035 1.7074 -2.2958 1.7899 1.4107 -2.4013 -0.1175 -2.4787 -0.1571 -0.2277 -1.1871 0.1951 2.2474 2.3588 -0.4570 -1.3280 -2.0589 -2.2070 3.4133 2.3015 -1.0752 1.2279 1.7604 -1.1792 -0.6947 -2.9270 -1.4040 -1.4431 -0.6606 -1.8230 -0.9335 -0.2169 -0.6476 -0.9571 1.2186 -0.1444
1.3094 -2.5526 4.0990 -2.2481 1.7861 -0.0771 -0.7371 -4.4851 -1.9863 -2.2266 0.5564 -2.9285 1.0568 -1.0671 4.0346 -0.4275 -0.8069 3.9521 -0.6722 0.6645 3.7269 -1.3965 0.8740 2.4193 -0.4203 1.3741 1.3766 -0.0919 2.2019 -0.9271 3.4150 2.2252 -1.2147 2.3372 2.4201 -0.4233 -0.2170 -2.4686 -0.2367 -0.2743 -1.1894 0.1689 1.7986 1.3391 -2.2736 -1.4211 -1.9175 -2.2579 3.0973 1.5432 -2.3843 1.2834 1.7809 -1.0640 -0.8184 -2.8432 -1.4971 -1.4788 -0.5321 -1.8171 -0.9480 -0.1582 -0.6270 -0.9199 1.2552 -0.0629
-1.5213 -1.9288 6.3776 -2.0167 1.7078 0.0155 -0.6660 -4.1658 -2.6198 1.9343 -0.6708 0.4479 -0.5260 -1.7255 5.2628 -1.2253 -1.1478 4.0580 -0.2912 -0.2157 3.3280 -1.0894 0.6930 2.4281 -0.1707 1.3906 1.4479 0.0486 2.4025 -0.7979 3.0068 2.3947 -2.6922 2.4395 2.4421 -1.4672 -1.6835 -1.7080 -2.0549 -1.6491 -0.5068 -1.4549 0.9872 1.7950 -3.0021 0.4507 -2.2900 -1.0843 2.1084 1.9852 -3.6736 1.1402 1.9779 -1.6363 -0.5920 -2.6330 -1.8546 0.4889 -0.9859 -0.4406 -0.5340 -0.1072 -0.5865 -0.6392 1.2963 -0.0008
-1.1042 1.3477 6.9483 -1.8884 -0.0813 0.6916 0.4174 -3.9880 -4.2353 -2.5040 0.0926 -2.4015 -0.6543 0.1892 6.0939 -1.1435 0.3837 4.6805 -0.2224 -0.3288 3.7219 0.1109 0.5827 2.5668 0.3861 -0.2452 1.3312 -0.3986 1.5003 -0.2724 2.0275 2.8753 -2.4210 0.8444 2.2360 -2.2954 0.9194 -2.8067 -1.8404 0.6758 -1.9080 -0.8723 1.9764 2.2147 -0.3959 -0.9329 -1.9590 -3.1432 2.7583 2.8695 -1.2356 0.8265 1.7341 -0.9998 0.0818 -2.8278 -3.0181 -1.1927 -0.9865 -2.0930 -0.4213 -0.9415 -0.9790 -0.5625 0.0469 0.1689
-1.3292 1.3074 6.8722 -1.8884 -0.1633 0.7210 0.2926 -3.8379 -4.4589 -2.6164 0.0909 -2.3163 -1.3579 0.4427 5.6369 0.0077 0.4302 4.9958 -0.0242 -0.4083 3.7425 0.2215 0.4677 2.5394 0.3874 -0.3941 1.3076 -0.4020 1.4240 -0.2364 2.5525 3.1172 -1.0986 1.7959 2.5771 -0.1185 0.8746 -2.7653 -2.0275 0.6507 -1.9236 -1.0042 1.1453 1.8836 -2.1129 -1.0503 -1.9010 -3.2064 2.1609 2.6893 -2.3638 0.9158 1.7106 -0.7564 -0.0118 -2.7492 -3.1691 -1.2831 -0.9839 -2.1022 -0.4690 -0.9768 -1.0178 -0.5726 -0.0372 0.1738
-1.2837 -2.6300 4.8360 -2.1822 1.5034 -0.0367 -0.4338 -4.3778 -2.3829 1.8594 -0.6236 0.6217 -0.3877 -1.4452 5.0984 -1.0963 -0.1751 4.6977 -0.2791 0.5619 3.6651 -1.0927 0.7203 2.4058 -0.2872 1.4563 1.3574 -0.1985 2.2956 -0.9653 2.1952 2.0508 -3.5231 0.9457 1.7607 -3.1005 -1.5620 -1.9296 -2.0256 -1.6114 -0.7011 -1.4849 2.2307 2.4051 -1.4228 0.5215 -2.3812 -0.8902 3.0224 2.4552 -2.4791 0.9697 1.9127 -1.7181 -0.4564 -2.8026 -1.7053 0.4748 -1.0439 -0.3182 -0.5730 -0.2188 -0.5645 -0.7754 1.2069 -0.0647
-1.4335 -0.6107 5.7107 -2.1794 1.4775 -0.8461 -0.2489 -4.8249 -2.0891 -2.8937 -1.1209 0.6964 -1.1422 -0.9721 4.2762 -0.0621 -0.0693 3.7343 0.3025 -0.5120 2.3392 0.6454 0.6759 1.4743 -0.6028 1.2972 0.8848 -0.0099 1.9227 -1.5048 3.4486 2.4654 -1.7317 2.4021 1.6623 -2.0201 0.3837 -2.1845 -2.2297 0.2219 -0.8950 -1.8908 1.8752 3.1384 -0.4655 -1.4616 -2.8225 -0.8067 3.1382 3.4003 -0.7489 1.3845 2.0338 -1.1470 -0.4912 -3.1830 -1.6595 -1.6280 -1.4250 -0.4383 -0.8085 -0.4679 -0.9414 -0.8403 1.0143 -0.5963
-0.6987 -0.0955 7.1204 -2.3272 0.3335 0.1739 0.2924 -4.2303 -3.9727 -2.4498 0.2329 -2.9228 -0.0099 0.6223 5.9863 -0.5042 0.0770 4.6701 0.3161 0.6462 3.5388 -0.5712 0.9153 2.3484 -0.2683 -0.0839 1.2544 -0.4669 1.6113 -0.5910 2.6800 2.4291 -1.9326 1.5208 1.7535 -2.0808 0.5930 -2.8584 -1.6469 0.2906 -1.8662 -0.7931 1.7943 2.4298 0.0053 -0.9998 -2.0074 -3.2554 2.8727 2.8630 -0.6232 0.9604 1.6806 -0.8098 -0.0873 -2.9314 -2.9198 -1.3096 -0.9228 -2.3369 -0.7043 -0.8423 -1.1270 -0.9230 0.2437 -0.0856
-2.1967 -1.4341 5.5137 -2.0113 1.3471 0.4735 -0.7056 -4.3986 -2.4577 2.1348 -0.6479 0.0283 -0.7469 -1.3543 5.1049 -0.6451 -1.3187 3.5998 0.3372 -0.2537 3.1775 -0.4120 0.9271 2.6129 0.2061 1.3783 1.3080 -0.3922 2.1657 -0.9845 2.6703 3.0367 -2.4701 1.9170 3.0122 -1.3494 -1.8093 -2.0359 -1.6864 -1.7629 -0.8270 -1.1033 1.0759 1.6973 -2.9145 0.5144 -2.4171 -1.1518 2.1585 2.2120 -3.4684 0.9119 2.0838 -1.5932 -0.6231 -2.8598 -1.7063 0.5670 -1.1009 -0.5331 -0.5362 -0.3136 -0.4771 -0.6519 1.1014 0.0772
-2.5745 -2.6400 5.2413 -1.1515 2.0143 0.0281 -0.7619 -4.3094 -1.9080 2.5025 -0.7974 0.4496 -1.5469 -2.1810 4.2373 -1.2908 -0.7050 4.4116 -0.2115 -0.2660 3.4544 -0.7202 0.8684 2.6004 0.3912 1.3730 1.7069 1.1586 2.0612 -0.5243 0.9869 3.1629 -3.8642 0.5235 3.2776 -2.6010 -1.5391 -1.7712 -1.3263 -1.3317 -0.5345 -0.8439 1.7148 1.4323 -2.8586 0.7099 -2.4242 -0.7195 1.7407 2.0065 -4.0477 0.9268 2.1200 -1.9486 -0.4759 -2.7481 -1.2590 0.9290 -1.0856 -0.1958 -0.0476 -0.1476 -0.2523 0.0678 1.2938 0.2196
-1.5967 -0.8782 6.4185 -2.2272 1.2443 0.0394 -0.2876 -4.4272 -2.6375 1.9950 -0.6193 0.3043 -0.5116 -1.2699 5.4463 -1.0264 -1.1521 4.0333 -0.1502 -0.2076 3.2469 -1.0159 0.6955 2.4058 -0.2115 1.3020 1.2754 -0.3939 2.1723 -1.0495 2.2646 2.3072 -3.3325 1.0635 1.7782 -3.0141 -1.5430 -2.0768 -2.1002 -1.6275 -0.8715 -1.5140 1.9959 2.7668 -1.2703 0.6535 -2.4164 -1.1553 2.8708 2.9321 -2.2459 0.9044 2.0025 -1.6509 -0.3593 -2.8800 -1.9022 0.5649 -1.1045 -0.5310 -0.5523 -0.3463 -0.6614 -0.8096 1.0488 -0.1051
-2.1201 -1.8225 3.9899 -1.6126 0.9330 1.0393 -0.9490 -4.6003 -2.4416 2.3111 -0.7407 -0.7417 -1.7450 -0.4355 4.4488 -0.2460 -0.3391 4.5930 0.2940 0.7195 3.6632 0.7915 0.0714 2.3946 0.7235 1.0573 1.2495 -0.5045 1.9090 -0.7673 2.1950 3.4853 -2.3801 1.5787 3.1949 -1.2140 -1.8853 -2.3505 -1.2401 -1.7284 -1.1574 -0.6440 0.8022 1.9494 -2.8662 0.5073 -2.5728 -1.4902 1.7217 2.7086 -3.4343 0.7198 2.1392 -1.4958 -0.7195 -3.0823 -1.6773 0.6748 -1.2779 -0.8462 -0.3991 -0.5781 -0.4045 -0.4104 0.7895 0.2651
-1.3117 -0.7209 5.7456 -2.1735 1.5321 -0.7467 -0.3724 -4.7372 -2.2934 -2.9046 -1.1181 0.6986 -1.0809 -1.0565 4.2939 0.0258 -0.1911 3.7454 0.3341 -0.6106 2.3298 0.6801 0.5906 1.4846 -0.5703 1.2552 0.9484 -0.0087 1.9615 -1.4326 3.1558 3.3647 -0.8599 1.8600 3.2909 -0.4862 0.3135 -2.1060 -2.3190 0.1787 -0.8300 -1.9219 2.4085 1.6179 -1.8190 -1.5240 -2.7748 -0.8992 3.5224 2.3166 -1.6990 1.3722 2.1116 -1.0403 -0.5711 -3.1135 -1.7803 -1.6611 -1.3928 -0.4674 -0.8342 -0.4282 -0.9428 -0.8387 1.0385 -0.5386
-2.8465 -0.8419 6.6091 -1.0927 1.3952 0.3048 -0.6188 -4.2301 -3.1606 2.6823 -1.2470 -0.2061 -1.5933 -1.0405 5.7940 -1.6095 -0.1113 4.6060 -0.2657 -0.1362 3.9212 -0.4537 -0.3696 2.4430 0.5773 0.4209 1.6679 1.1731 1.7188 -0.3340 0.6354 3.7004 -3.2016 0.2750 3.4090 -1.9327 -1.4128 -1.8996 -2.0067 -1.2170 -0.8155 -1.2378 1.5947 1.8463 -2.7745 0.8729 -2.6066 -1.6560 1.4656 2.7266 -3.7512 0.8313 2.1652 -1.6638 -0.3262 -2.8303 -2.2143 1.0850 -1.4259 -0.8335 0.0782 -0.5481 -0.6044 0.1654 0.7203 0.2310
-3.5472 -0.2334 4.6898 -0.9190 1.1704 0.7744 -0.5293 -4.2377 -3.0247 2.9390 -1.0418 -0.5150 -2.1783 0.3317 4.9761 -1.1264 -0.6938 4.6347 0.0620 -0.0117 4.0044 0.3476 -0.6319 2.6595 1.0643 0.3667 1.7777 1.1371 1.7513 -0.2514 0.8823 2.7610 -3.6237 1.4533 1.9412 -2.7144 -1.3320 -2.0952 -1.5593 -1.1095 -1.0261 -0.7771 -0.2954 2.9955 -1.8615 1.0401 -2.5468 -1.6832 -0.2241 3.4306 -3.1072 0.6532 2.0274 -1.5819 -0.2127 -2.8804 -2.0267 1.2800 -1.3845 -0.8426 0.2496 -0.6264 -0.3961 0.3651 0.6337 0.4482
0.6912 -1.1295 6.1635 -2.4914 0.7187 -0.1026 -0.3202 -4.4809 -3.5741 -1.8598 0.6202 -3.2735 0.9868 -0.2522 4.9732 -0.2705 0.4636 4.5462 0.0207 1.3152 3.3353 -1.0760 1.1540 2.3114 -0.6676 0.1175 1.2884 -0.4124 1.7361 -0.6145 2.9215 2.7716 -0.3065 1.7320 2.5741 0.3018 -0.1575 -3.0540 -1.2642 -0.3205 -1.9406 -0.5298 1.8274 1.5185 -1.6360 -0.9873 -1.9193 -3.2301 3.0027 2.1114 -1.5291 1.0284 1.6957 -0.5163 -0.5094 -3.0387 -2.6658 -1.1791 -0.7212 -2.4274 -0.8730 -0.7099 -1.1064 -1.0858 0.4499 -0.1435
-0.7756 -0.7294 6.3104 -2.1526 1.0262 -0.3608 -0.3106 -4.4234 -3.7392 -2.2983 -2.0334 0.6002 -0.3072 -0.5230 4.8919 -0.9169 0.7366 4.3289 0.0063 1.3249 3.2900 -0.7283 1.4871 1.9821 -0.2720 0.4229 1.0079 -0.0624 1.8010 -1.0851 3.3584 2.4355 -1.5849 2.2350 1.8302 -2.0272 0.1251 -1.7918 -3.2083 0.0023 -0.6856 -2.4556 2.0228 2.4791 0.0729 -1.2082 -3.0483 -1.6336 3.2464 2.8483 -0.2603 1.3756 1.7773 -0.9337 -0.4998 -3.0195 -2.7725 -1.3329 -1.8484 -0.8202 -0.7280 -0.6902 -1.1851 -0.7793 0.6238 -0.4177
-0.6615 -0.5126 6.6214 -2.0351 0.8473 -0.1400 -0.3384 -4.3283 -3.9953 -1.9363 -2.2739 0.6665 -1.1628 0.5013 5.6265 -0.2835 0.5029 4.4018 -1.1402 0.5905 3.1620 -0.3775 1.2771 2.0554 0.0032 0.2712 0.9902 -0.0718 1.7453 -1.0581 3.2605 2.6046 -1.7693 2.1745 1.8800 -2.1155 0.0379 -1.7126 -3.3597 -0.0614 -0.6519 -2.5402 1.9989 2.6566 -0.0544 -1.0422 -3.1201 -1.7200 3.1712 3.0994 -0.4709 1.3702 1.8344 -0.9794 -0.4645 -2.9953 -2.9247 -1.1415 -1.9677 -0.8346 -0.6380 -0.7607 -1.1977 -0.6615 0.5125 -0.3639
-0.5287 -0.2352 7.0141 -2.2583 0.8930 0.0811 -0.6189 -4.2914 -3.6377 1.9120 -1.0552 -0.2482 -1.0351 -0.7401 5.6823 -0.1024 -0.2739 4.5828 -0.9006 0.4604 3.5259 -0.7423 -0.2317 2.1904 -0.1810 0.7382 1.1738 -0.4543 1.9091 -1.0209 2.7999 3.2259 -1.3675 1.7351 3.0157 -0.5618 -1.7994 -2.0625 -2.6187 -1.8362 -0.9921 -1.8079 1.5854 1.8392 -2.4320 0.4548 -2.5582 -1.9176 2.7317 2.4861 -2.5450 0.9680 2.0518 -1.2076 -0.6068 -2.8763 -2.6684 0.4231 -1.3852 -1.0536 -0.6844 -0.6074 -0.9744 -0.8615 0.6898 -0.1892
-0.3332 -1.1604 6.5891 -2.2595 1.2994 -0.3606 -0.8393 -4.6692 -2.7503 1.7538 -0.9694 0.0681 -0.6179 -1.3737 5.1239 -0.7795 -0.0400 4.4393 -0.1625 -0.1068 3.0656 -1.1094 0.4881 2.0551 -0.3192 1.1754 0.9630 -0.2982 1.8933 -1.4685 2.7795 3.5745 -1.4763 1.5685 3.4217 -0.8979 -1.9066 -2.2121 -2.2745 -1.8878 -0.9847 -1.7293 2.0506 1.7142 -2.2130 0.2659 -2.6942 -1.3351 3.1055 2.5038 -2.3037 1.1076 2.1740 -1.3059 -0.7850 -3.0980 -2.0639 0.2921 -1.3567 -0.7617 -0.7522 -0.5080 -0.9273 -0.8731 0.9288 -0.4360
1.3730 -1.1285 4.7080 -2.5410 0.7525 -0.1702 -0.2778 -4.6436 -3.2928 -1.8415 0.4572 -3.2907 1.0575 0.3183 4.9959 -0.3187 0.6534 4.4769 -0.2012 1.5796 3.2903 -1.2713 1.2645 2.2745 -0.7817 0.1967 1.3209 -0.4173 1.6958 -0.6532 3.0007 2.1221 -1.3060 1.8480 1.5071 -1.6493 -0.1953 -3.1056 -1.0491 -0.3840 -1.9581 -0.3761 1.7184 2.3875 0.3718 -0.9735 -2.0759 -3.0924 2.9406 2.6809 -0.0329 1.0203 1.6043 -0.5356 -0.5058 -3.1622 -2.4597 -1.1906 -0.8402 -2.3572 -0.9174 -0.7595 -1.0316 -1.1416 0.4536 -0.1415
-2.9313 0.4151 4.1328 -1.6476 0.3297 0.7812 -0.3620 -4.5167 -3.5611 -0.5211 -2.6312 1.4250 -1.5596 0.8092 4.6218 -0.5306 -0.1192 4.0260 0.7042 0.6439 3.6078 0.5063 1.3012 2.2624 0.7270 0.3065 1.1429 -0.3723 1.6113 -0.7100 2.1956 3.1386 -2.5545 1.2389 2.1868 -2.5089 -0.3358 -1.8516 -3.0217 -0.3384 -0.7989 -2.1874 1.6842 2.9734 -0.4952 -0.3928 -3.3757 -1.1484 2.4945 3.6443 -1.2932 0.9441 2.0066 -1.1611 -0.3611 -3.1891 -2.4762 -0.4013 -2.2316 -0.2500 -0.3527 -0.9639 -0.7312 -0.3881 0.3113 0.0989
-0.3459 -0.5824 6.6062 -2.2283 1.0920 -0.3990 -0.3324 -4.0349 -4.2306 -2.5826 -2.0516 0.1836 0.1566 -0.3947 5.1970 -0.7448 0.5634 4.4590 -0.0098 1.1300 3.2697 -0.9407 1.2184 2.0860 -0.5033 0.2270 1.0316 -0.0505 1.8331 -0.8426 3.3174 2.4495 -0.0454 2.0800 2.1548 0.4081 0.1662 -1.5079 -3.3615 0.0100 -0.4831 -2.5076 2.2382 1.8229 -1.7679 -1.3332 -2.8706 -2.0467 3.4377 2.2481 -1.4169 1.3787 1.6655 -0.6893 -0.5313 -2.7486 -3.1149 -1.4901 -1.7591 -1.1210 -0.8168 -0.5953 -1.3040 -0.8750 0.6238 -0.3938
-0.2868 -1.9978 4.8802 -2.0903 1.6521 -1.5103 -0.4969 -4.7922 -2.2892 -3.2025 -0.8987 0.1632 -0.2467 -0.4915 4.9493 0.5144 0.0514 3.7659 -0.4115 0.8616 2.8934 -0.0850 0.6048 1.4450 -1.0025 1.4216 0.5628 0.2271 1.8772 -1.5996 3.2215 3.0397 -0.1384 1.8993 3.2284 -0.3417 0.2776 -2.1890 -2.4172 0.1596 -0.8879 -2.1053 2.5244 1.1916 -0.9367 -1.7093 -2.7081 -1.1433 3.6349 1.7607 -0.5033 1.4155 2.0080 -0.7941 -0.6903 -3.1322 -1.9057 -1.8344 -1.2974 -0.8111 -0.9151 -0.3961 -1.2381 -0.9032 1.0937 -0.9257
-2.4521 1.7340 5.4140 -1.1698 0.9061 0.6316 -0.3894 -4.0146 -3.7337 2.7727 -1.3244 -0.3739 -1.5205 0.5617 5.5928 -1.6523 -0.3720 4.4167 -0.2853 -0.8302 3.9732 -0.2922 -1.0860 2.4868 0.6274 -0.1032 1.7963 1.0260 1.5046 -0.0135 1.2576 2.9597 -3.2169 1.6690 1.9952 -2.3661 -1.3364 -2.0486 -2.1178 -1.1978 -1.0941 -1.1828 -0.1351 3.0257 -1.6048 1.0151 -2.5897 -1.9654 0.1178 3.6167 -2.7590 0.7287 1.9752 -1.3443 -0.1842 -2.8189 -2.5238 1.1659 -1.5458 -0.9645 0.1040 -0.7994 -0.5727 0.1308 0.3480 0.4277
0.4744 -1.8991 4.0163 -1.8198 1.6005 -1.8751 -0.7087 -5.0490 -1.6872 -3.5738 -0.6555 -0.7104 -0.0645 -0.5482 4.4187 0.6260 0.5328 3.6225 -0.3674 1.2340 2.7272 -0.4272 0.5246 1.3989 -1.1042 1.3919 0.3616 0.4857 1.5835 -1.6249 3.5250 2.1866 0.0467 2.7010 1.2846 -0.5296 0.4000 -2.5658 -1.7059 0.3460 -1.2290 -1.5845 1.6721 3.2115 -0.1854 -1.9748 -2.7335 -1.2889 2.8946 3.4070 0.2752 1.4652 1.9125 -0.6201 -0.8088 -3.3426 -1.5513 -2.0264 -1.2873 -1.1426 -0.9088 -0.5323 -1.2845 -0.8057 0.9727 -1.0768
0.8420 0.7902 5.7250 -2.0991 1.5780 -1.4399 -0.2619 -4.7072 -2.9024 -3.3924 -1.1002 -0.5276 -0.3277 0.0346 5.1459 0.0594 -0.5527 3.8114 -0.9643 -0.1689 2.7726 -0.2794 0.1139 1.4591 -1.1406 1.0487 0.6388 0.1911 1.8826 -1.3416 3.5737 2.1044 -0.4291 2.6360 1.5006 -1.1905 0.5486 -2.1455 -2.4779 0.3653 -0.8890 -2.0393 1.7155 2.6538 0.4521 -1.6880 -2.7461 -1.7885 3.0138 2.8318 0.6170 1.4160 1.7808 -0.5841 -0.5220 -3.1069 -2.3448 -1.8711 -1.3921 -1.2904 -0.8821 -0.4694 -1.3956 -0.9328 0.9585 -0.8702
-0.1388 1.4311 5.8419 -2.4876 0.9073 -0.1668 -0.1797 -4.2577 -3.5560 1.6542 -1.0720 0.2959 0.1452 0.0134 5.4071 -1.0058 -0.5125 4.5891 -0.5353 -0.8393 3.1945 -1.4384 -0.1846 2.1775 -0.6380 0.7317 1.2795 -0.5273 1.9227 -0.9041 2.6475 2.4024 -2.3289 1.4321 1.8216 -2.4239 -1.5027 -2.0082 -2.7912 -1.6928 -0.9452 -1.9944 1.7978 2.5855 -0.3828 0.5179 -2.5808 -1.5981 2.9002 2.8869 -1.0492 0.8915 1.8707 -1.1431 -0.3596 -2.8650 -2.5701 0.3392 -1.3961 -0.7743 -0.7511 -0.6039 -0.9193 -1.0684 0.6920 -0.1833
1.5734 0.0280 5.9989 -2.6397 0.5506 -0.2107 0.0702 -4.2969 -3.8753 -1.7558 0.6839 -3.2815 1.2715 0.6142 4.6431 -0.2199 0.6311 4.4191 -0.5308 1.4159 3.1689 -1.5970 0.7140 2.3654 -0.9640 -0.1689 1.3118 -0.5123 1.5879 -0.4029 2.8865 2.1438 -1.0824 1.6917 1.7085 -1.5377 -0.0811 -3.0911 -1.4420 -0.3789 -2.0619 -0.6314 1.7037 1.8661 0.6654 -0.7867 -1.8199 -3.3733 2.9158 2.2461 0.3053 0.9268 1.4507 -0.4049 -0.2949 -2.9600 -2.8656 -1.1145 -0.7105 -2.4919 -0.9251 -0.8047 -1.1526 -1.2387 0.2732 -0.1256
1.3213 -2.0363 2.3129 -1.9214 1.5430 -1.8128 -0.8903 -4.9213 -0.5089 -3.4980 -0.3126 0.1870 0.0007 -1.6250 2.9180 0.0602 -0.1728 3.3281 -0.9109 0.6412 2.5073 -0.1486 1.4470 1.4854 -1.0559 1.8630 0.3504 0.3921 1.5881 -1.7298 3.6943 2.0723 -0.6322 2.7186 1.1920 -0.9438 0.2135 -2.5214 -1.1576 0.1948 -1.1810 -1.2583 1.9070 3.2286 -0.6778 -2.0230 -2.5193 -0.2374 3.2028 3.3631 -0.4629 1.5310 1.9139 -0.9052 -0.9382 -3.2102 -0.6206 -2.0420 -1.0704 -0.3527 -0.9645 -0.3954 -0.8259 -0.8436 1.1134 -0.9630
2.0845 -2.1610 3.2496 -2.5182 1.6927 -0.9165 -1.1541 -4.7229 -1.4861 -1.0295 0.2201 -3.4678 0.7105 -1.6141 3.5451 0.7855 -0.1168 3.7128 -0.4702 0.5238 3.1746 -0.1353 1.2964 1.9239 -1.3786 1.5363 1.0997 -0.2198 2.1353 -1.0682 3.2093 2.5922 -0.4346 1.9395 2.9846 -0.1940 -1.2746 -2.5241 0.1125 -1.2817 -1.1975 0.3232 1.9955 1.0140 -1.1932 -1.0407 -2.1744 -2.2657 3.2661 1.3495 -1.0597 1.1341 1.9319 -0.6145 -1.1466 -3.0268 -1.2358 -1.0620 -0.7388 -2.0328 -1.1575 -0.2358 -0.7763 -1.2562 1.2353 -0.3962
1.2217 0.5446 5.7876 -2.1626 1.0888 -0.5921 -0.3795 -4.2815 -4.1213 -2.7493 -1.9722 0.0662 0.0623 -0.0431 5.0225 -0.7356 1.0686 4.3868 -1.4939 0.5347 3.1970 -1.0322 1.2344 1.9427 -0.5394 0.2074 0.9486 0.0624 1.6942 -1.0027 3.5495 2.0747 -0.7518 2.5118 1.4747 -1.3745 0.2609 -1.7693 -3.3005 0.1371 -0.7068 -2.4879 1.8769 2.4145 0.5207 -1.4338 -2.9598 -2.0560 3.1706 2.6698 0.4481 1.4235 1.6178 -0.5206 -0.5562 -2.9388 -3.0701 -1.5626 -1.8076 -1.1779 -0.7958 -0.7029 -1.3578 -0.8356 0.5580 -0.5071
1.6085 -1.8258 2.3523 -1.8813 1.6217 -1.8432 -0.9491 -4.9085 -0.5505 -3.5838 -0.2866 -0.0798 0.1973 -1.6335 2.8513 0.0270 -0.2225 3.3569 -0.9366 0.5310 2.4740 -0.1618 1.3494 1.4730 -1.0629 1.8155 0.3520 0.4325 1.5897 -1.7140 3.2134 3.2425 -0.3078 1.9258 3.3104 -0.7128 0.2021 -2.5185 -1.1420 0.1967 -1.1795 -1.2462 2.6274 1.2147 -0.6083 -2.1085 -2.5059 -0.4296 3.6712 1.9294 -0.2287 1.5066 1.9938 -0.8449 -0.9964 -3.2025 -0.7131 -2.1052 -1.0554 -0.5338 -0.9883 -0.3853 -0.9124 -0.8346 1.1260 -0.9925
1.4397 1.0098 5.2969 -2.1429 1.5389 -1.2796 -0.3824 -4.4443 -3.5513 -3.3093 -1.3184 -0.3719 0.5126 -0.0741 4.8070 -0.5371 0.5287 3.9077 -0.9418 -0.4676 2.8485 -0.3166 -0.1010 1.5256 -1.2237 0.8454 0.7697 0.1518 1.8470 -1.0980 3.0237 2.6724 0.7527 1.6781 2.7364 0.6514 0.4089 -1.9327 -2.8654 0.2503 -0.7573 -2.2338 2.5167 1.2256 -0.7243 -1.6784 -2.7429 -1.9567 3.5716 1.7232 -0.1053 1.3195 1.7433 -0.2548 -0.5953 -2.9618 -2.7165 -1.8479 -1.4674 -1.2791 -0.9145 -0.4887 -1.3865 -0.9831 0.8855 -0.7362
2.3990 -0.6928 4.9517 -2.6514 1.3108 -1.0292 -0.4950 -4.6103 -3.0139 -0.6508 0.6858 -3.6223 0.9314 -0.3823 4.7965 0.7556 0.7475 3.8122 -0.6429 0.7240 3.2461 -0.6172 0.1202 1.8648 -1.7223 0.7097 1.0181 -0.4082 1.9280 -0.7419 2.8238 2.4729 0.5170 1.4940 2.6523 0.6695 -1.1514 -2.9388 -0.9731 -1.3438 -1.7227 -0.4365 1.9270 1.0947 -0.8365 -0.5712 -1.9430 -3.0959 3.1177 1.4914 -0.4252 0.8893 1.7071 -0.1519 -0.7406 -3.0474 -2.3536 -0.7949 -0.6288 -2.5127 -1.1292 -0.4922 -1.2050 -1.4190 0.8139 -0.4780
1.1821 1.3543 4.4932 -2.4417 1.1431 -0.6451 -0.7565 -4.8510 -2.7272 1.4878 -1.1266 0.3526 0.7907 -0.0693 4.1839 -0.7123 -0.1755 4.0997 -1.1059 -0.7999 2.7835 -1.8061 0.2140 1.9124 -0.8037 0.9256 1.0283 -0.2992 1.7661 -1.3051 3.1041 2.6220 -1.3558 2.1272 1.8082 -1.8119 -1.8367 -2.3722 -2.4472 -1.8701 -1.1324 -1.9326 1.4698 2.9336 -0.0275 0.2051 -2.8477 -1.2474 2.7102 3.3389 -0.2294 1.0766 1.9401 -0.9109 -0.7598 -3.2627 -2.0815 0.1645 -1.5042 -0.6884 -0.8563 -0.6603 -0.9804 -1.0698 0.7559 -0.4629
-1.4956 2.5334 3.7663 -1.9887 -0.1775 0.8384 -0.2186 -4.6195 -3.6784 2.2740 -0.8700 -0.8318 -0.3673 1.8006 4.4481 -0.6257 0.3141 4.4039 0.5456 -0.3858 3.7566 0.1429 -0.9490 2.4149 0.2960 0.1132 1.3484 -0.8585 1.3241 -0.5362 1.5459 3.3668 -2.0776 0.7043 2.3160 -2.1892 -1.5792 -2.8438 -2.1304 -1.6510 -1.8145 -1.2701 0.9982 2.8931 -0.0757 0.8297 -2.6830 -2.1698 1.7469 3.7441 -0.7527 0.3954 1.9437 -0.8860 -0.2865 -3.2953 -2.5909 0.7495 -1.5690 -1.2361 -0.4470 -1.1435 -0.7604 -0.7102 0.0019 0.2087
-0.4803 3.2782 5.4688 -2.2188 -0.8801 0.5580 0.7083 -3.4586 -4.8700 -2.5446 0.0113 -2.4458 0.1535 1.9418 5.1734 -0.2845 1.4658 3.8114 0.4038 0.1631 3.4825 -0.5567 -0.7472 2.7596 -0.0112 -1.1158 1.3955 -0.7314 0.9285 0.1479 1.9375 2.7746 -1.2114 0.8635 1.9870 -1.4379 0.9561 -2.8425 -2.2304 0.5843 -2.2011 -1.1109 1.4834 1.9122 0.6818 -0.8150 -1.7679 -3.4781 2.3457 2.7397 0.1201 0.5953 1.3604 -0.2269 0.2249 -2.6157 -3.4569 -1.2104 -1.0703 -2.2645 -0.5487 -1.2709 -1.0975 -0.8548 -0.5926 0.2313
1.8371 1.4923 4.9573 -2.2648 1.1034 -0.6755 -0.2447 -4.0242 -4.4254 -2.9278 -2.0625 -0.2464 0.8178 0.5061 4.4454 -0.5095 1.2009 4.2658 -1.3976 0.3800 3.3637 -1.4453 1.0040 1.9911 -0.9003 0.0213 0.9808 0.0250 1.6222 -0.7232 3.4924 1.6980 -0.1679 2.4719 1.2389 -0.9238 0.2868 -1.5700 -3.3844 0.1006 -0.5789 -2.4971 1.7475 2.0320 1.0053 -1.4464 -2.8836 -2.3310 3.0564 2.1982 1.0555 1.3283 1.3778 -0.1442 -0.5122 -2.7701 -3.2871 -1.6499 -1.8021 -1.3789 -0.8817 -0.6842 -1.4151 -0.9838 0.5006 -0.4650
1.7025 0.1000 5.1696 -1.5438 1.6553 -2.0752 -0.6592 -4.9790 -2.5843 -3.5755 -0.6178 -1.6138 1.2738 -0.0218 3.7292 -0.2325 -0.0268 3.6446 -0.6940 0.9486 2.5899 -1.0101 0.2058 1.3151 -1.3951 1.1846 0.2279 0.6334 1.4983 -1.2994 2.5710 3.0612 1.1965 1.4854 3.1133 0.3941 0.4770 -2.5928 -1.9375 0.4261 -1.2870 -1.6250 2.3767 1.0882 0.4144 -1.9327 -2.6847 -2.1008 3.1461 1.7929 1.2248 1.3005 1.8152 -0.0640 -0.7510 -3.3132 -2.1876 -1.9848 -1.2737 -1.7525 -0.8485 -0.5670 -1.5318 -0.7651 0.9002 -1.1341
1.7947 0.9507 5.2852 -1.7485 1.5960 -1.8074 -0.3207 -4.7422 -3.3724 -3.5530 -0.9286 -1.4965 0.5441 1.2278 4.4900 0.3590 0.1564 3.4449 -0.9777 0.3397 2.7708 -0.9158 -0.1860 1.3591 -1.4628 0.8551 0.4076 0.4620 1.5465 -1.1166 3.1506 1.6695 1.1433 2.4449 0.9384 0.2534 0.6281 -2.3773 -2.4240 0.4780 -1.1524 -1.8936 1.3500 2.7664 0.8418 -1.7651 -2.7149 -2.4067 2.4762 2.8247 1.5294 1.2336 1.6017 0.0996 -0.5411 -3.1828 -2.6938 -1.9229 -1.3880 -1.8311 -0.8454 -0.6017 -1.5862 -0.8684 0.8011 -0.9967
0.5618 2.0766 6.3518 -2.3347 0.5962 -0.3628 -0.0070 -3.5688 -5.0230 -2.5780 -2.5857 -0.4508 -0.3153 1.1222 5.5812 -0.1171 1.3374 4.1020 -0.3327 0.0387 3.3657 -1.1957 0.2864 2.1544 -0.6281 -0.4520 0.9633 -0.1875 1.5117 -0.5455 3.2435 2.2404 -0.4441 2.1877 1.8307 -1.1794 0.3319 -1.2511 -3.6413 0.1023 -0.4332 -2.6010 1.7545 1.7121 0.9810 -1.1862 -2.8933 -2.7259 2.9924 2.1673 0.9224 1.2279 1.4059 -0.2658 -0.3364 -2.5312 -3.6984 -1.4311 -2.0022 -1.6022 -0.7939 -0.8082 -1.5048 -0.9583 0.2001 -0.3766
1.7885 0.8363 5.3807 -1.7461 1.6125 -1.7667 -0.3528 -4.7511 -3.3868 -3.5666 -0.8524 -1.6600 0.5874 1.1575 4.5276 0.4213 0.0981 3.4670 -0.9030 0.2904 2.7723 -0.8212 -0.2214 1.3564 -1.4356 0.7970 0.4201 0.4740 1.5271 -1.1262 2.4877 2.8627 1.4327 1.3488 2.9565 0.7120 0.6134 -2.4236 -2.3629 0.4718 -1.1971 -1.8331 2.3226 0.9902 0.4285 -1.7849 -2.6765 -2.5049 3.1141 1.6292 1.2709 1.1865 1.7148 0.1104 -0.5622 -3.1868 -2.7153 -1.9350 -1.3515 -1.9224 -0.8495 -0.6019 -1.6080 -0.8594 0.7901 -0.9924
0.3966 3.3873 4.3830 -2.4098 0.2694 -0.0279 -0.0450 -3.4136 -5.0514 -2.3482 -2.9390 -0.2577 0.8365 1.9487 4.4933 -0.3704 1.0459 4.4402 -0.1095 -0.1101 3.5067 -1.1356 -0.1006 2.4020 -0.5446 -0.6953 1.1442 -0.3553 1.3704 -0.2650 3.0022 2.3845 -0.4015 1.9100 1.9663 -1.0769 0.1764 -1.1541 -3.5570 -0.0661 -0.4144 -2.4629 1.7159 1.5704 1.0842 -1.0950 -2.9899 -2.6334 2.9003 2.1407 0.9644 1.0858 1.3588 -0.1337 -0.3536 -2.4957 -3.6366 -1.3517 -2.1842 -1.4496 -0.8299 -0.9376 -1.3276 -1.0088 -0.0080 -0.1370
0.3625 3.4633 3.7002 -2.3615 -0.0631 0.3403 -0.2125 -3.0422 -5.1927 -1.9581 -3.2522 -0.1555 0.7703 2.1607 4.3431 -0.3644 1.1703 4.2446 0.1176 -0.0948 3.5763 -0.9415 -0.5922 2.6241 -0.3230 -0.9303 1.2858 -0.4367 1.2455 0.0680 2.9044 2.2141 0.5946 1.8586 1.4753 1.0229 -0.0733 -0.9029 -3.5234 -0.2569 -0.2925 -2.3413 1.5618 2.1560 -1.0550 -0.9937 -2.9545 -2.6412 2.7374 2.6504 -0.7162 1.0006 1.3601 -0.0665 -0.4525 -2.2885 -3.6721 -1.1854 -2.2879 -1.3621 -0.7991 -0.9999 -1.1785 -0.9546 -0.1944 0.1046

>  <OB_ATOM_TYPES> (1phaA1)
C.3 O.3 Cl Cl C.3 C.3 C.3 C.3 C.3 C.3 C.ar C.ar C.ar C.ar C.ar C.ar N.ar N.ar C.ar C.ar C.ar C.3

>  <ENSEMBLE_RMSD> (1phaA1)
1.141 1.167 1.470 1.727 1.744 1.749 1.780 1.791 1.798 1.803 1.810 1.826 1.833 1.835 1.863 1.889 1.913 1.940 1.979 2.010 2.043 2.068 2.086 2.097 2.100 2.114 2.126 2.136 2.184 2.239 2.253 2.292 2.313 2.334 2.354 2.485 2.498 2.509 2.518 2.553 2.578 2.682 2.684 2.695 2.698 2.781 2.931 2.941

$$$$
