
 OpenBabel03071213D

 11 12  0  0  0  0  0  0  0  0999 V2000
   46.0500   42.6380   15.5120 C   0  0  0  0  0
   46.5810   43.7790   16.0850 C   0  0  0  0  0
   45.7090   42.4820   14.1820 C   0  0  0  0  0
   47.5470   47.4590   11.7450 C   0  0  0  0  0
   46.9260   46.9850   12.8650 C   0  0  0  0  0
   47.0370   44.7860   15.1840 C   0  0  0  0  0
   46.1260   43.5070   13.3300 C   0  0  0  0  0
   48.0130   45.4170   11.7920 C   0  0  0  0  0
   48.1640   46.4980   11.1500 N   0  0  0  0  0
   47.2330   45.6650   12.8660 N   0  0  0  0  0
   46.7880   44.6000   13.8360 C   0  0  0  0  0
  1  2  1  0  0  0
  1  3  2  0  0  0
  2  6  2  0  0  0
  3  7  1  0  0  0
  4  5  2  0  0  0
  4  9  1  0  0  0
  5 10  1  0  0  0
  6 11  1  0  0  0
  7 11  2  0  0  0
  8  9  2  0  0  0
  8 10  1  0  0  0
 10 11  1  0  0  0
M  END
>  <MOLID> (1phdA1)
1phdA1

>  <SMILES_CANONICAL> (1phdA1)
c1ccc(cc1)n1cncc1	

>  <FINGERPRINT> (1phdA1)
0000000000000000000000000000001000000000100000000000000000000000000000000000000000000000000000000000000000000000000001100000000000000000000000000000000001000000000000000000000000000000000000000000000000000000100000000000000000000000000000000001000000000000000000000000000000000001000000000000000000000000000010000100000000000000000000001000000000001100000000000000000010000000000000000000000000000000000110000000000000000000000000000000000000000000000000000000010000000000010000000000000000001100000000000000010000001000000000000000000000001000000000000000000000000000000000000000000001000000000000000000000000000000000000000000000000000000110000000000000000000000000000000001100000000000100000000000000000100001000000000000000001000000100000010000000000000000000000000000000000000000000000000000000010000000000000000000000000000000000000000000000010000000000000000000000000000000000000000000000000000100000000000000000000000000000000000100011000000000000000000100000000000100000000000000000000000000000000000000000000000000

>  <MACCS166> (1phdA1)
000000000000000000000000000000000000000000001000000000000000010010000000001111000010100000000001001000000000000000000011110010000000101010000100000100000001010011101000

>  <OB_MW> (1phdA1)
144.069

>  <OB_logP> (1phdA1)
1.8723

>  <OB_PSA> (1phdA1)
17.82

>  <OB_MR> (1phdA1)
43.564

>  <OB_ATOMIC_CHARGES> (1phdA1)
9.71087e-05 0.0014925079 0.0014925079 0.1196266668 0.1022271998 0.0175641719 0.0175641719 0.1828485525 -0.2220071039 -0.2864198035 0.06551402

>  <MCT_HBD> (1phdA1)
0

>  <MCT_HBA> (1phdA1)
2

>  <ENSEMBLE_TOTAL> (1phdA1)
2

>  <ENSEMBLE_COORDS> (1phdA1)
-0.8749 -2.2544 2.0077 -0.3439 -1.1134 2.5807 -1.2159 -2.4104 0.6777 0.6221 2.5666 -1.7593 0.0011 2.0926 -0.6393 0.1121 -0.1064 1.6797 -0.7989 -1.3854 -0.1743 1.0881 0.5246 -1.7123 1.2391 1.6056 -2.3543 0.3081 0.7726 -0.6383 -0.1369 -0.2924 0.3317
-0.9647 -2.2562 2.0825 -0.5938 -0.9320 2.5384 -0.9155 -2.5470 0.7719 0.8677 2.6122 -1.5309 0.4803 2.0438 -0.3684 -0.2005 -0.0010 1.6527 -0.4919 -1.5358 -0.1781 0.6421 0.5423 -1.9852 0.9726 1.6834 -2.5624 0.3347 0.6851 -0.6391 -0.1309 -0.2950 0.2186

>  <OB_ATOM_TYPES> (1phdA1)
C.ar C.ar C.ar C.ar C.ar C.ar C.ar C.ar N.ar N.ar C.ar

>  <ENSEMBLE_RMSD> (1phdA1)
0.000 0.342

$$$$
