
 OpenBabel03071213D

 11 12  0  0  0  0  0  0  0  0999 V2000
   48.7280   45.9310   12.9420 N   0  0  0  0  0
   45.8500   44.2560   16.7780 C   0  0  0  0  0
   46.8150   43.4730   16.1540 C   0  0  0  0  0
   45.2880   45.3700   16.1590 C   0  0  0  0  0
   48.9310   46.3320   11.6200 C   0  0  0  0  0
   47.3370   43.9030   14.9040 C   0  0  0  0  0
   45.8600   45.7890   14.9510 C   0  0  0  0  0
   46.8900   45.8360   11.8300 C   0  0  0  0  0
   47.8430   46.2770   11.0220 N   0  0  0  0  0
   47.4330   45.5820   13.0400 C   0  0  0  0  0
   46.8080   45.0660   14.3170 C   0  0  0  0  0
  1  5  1  0  0  0
  1 10  1  0  0  0
  2  3  2  0  0  0
  2  4  1  0  0  0
  3  6  1  0  0  0
  4  7  2  0  0  0
  5  9  2  0  0  0
  6 11  2  0  0  0
  7 11  1  0  0  0
  8  9  1  0  0  0
  8 10  2  0  0  0
 10 11  1  0  0  0
M  END
>  <MOLID> (1phfA1)
1phfA1

>  <SMILES_CANONICAL> (1phfA1)
c1ccc(cc1)c1cnc[nH]1	

>  <FINGERPRINT> (1phfA1)
0000000000000000100000000000001000000000000000000000000000000000000000000000000000000001000000000000000000000001000000100001000000000000000000000000000001000000000000000000000000000000000010000000000000000000000000000000000000000000000010000000000000000000000000000000000000000001000000000000000000000000000010000100000000000000000000001000000000000000010000000000000010001000000000000000001000000000000000000000000000000000000100000000000000000000000000000000001000000000000000001000000000001100000000000000010000000000000000100000000000000000000000100000000000100000000000000000010000000000000000000000000001000000000000000000000000000000000000000000000000000000000000000000100000000000000000000000000000100001000000000010000000000000000000000100000000000000000000000000000000000100000000000000000110000000000010000000000000000000000000000000000000000010000000000000000000000000000000000100000000000000000000010100000000000100000000000100001000000000000000000100000000000000000010000000000000000000000000000000000000000000

>  <MACCS166> (1phfA1)
000000000000000000000000000000000000000000001000010000000000010010000000000111100010000000000001001000000000000000000011100010000010000010000100000000100001010011101000

>  <OB_MW> (1phfA1)
144.069

>  <OB_logP> (1phfA1)
2.0767

>  <OB_PSA> (1phfA1)
28.68

>  <OB_MR> (1phfA1)
44.0237

>  <OB_ATOMIC_CHARGES> (1phfA1)
-0.222417586 1.2312e-06 4.92479e-05 4.92479e-05 0.1989651845 0.0015467147 0.0015467147 0.1197298884 -0.2208798893 0.1021654325 0.0192438138

>  <MCT_HBD> (1phfA1)
1

>  <MCT_HBA> (1phfA1)
2

>  <ENSEMBLE_TOTAL> (1phfA1)
3

>  <ENSEMBLE_COORDS> (1phfA1)
1.6568 0.6751 -1.0323 -1.2212 -0.9999 2.8037 -0.2562 -1.7829 2.1797 -1.7832 0.1141 2.1847 1.8598 1.0761 -2.3543 0.2658 -1.3529 0.9297 -1.2112 0.5331 0.9767 -0.1812 0.5801 -2.1443 0.7718 1.0211 -2.9523 0.3618 0.3261 -0.9343 -0.2632 -0.1899 0.3427
1.5041 1.1591 -0.9346 -1.2504 -1.0973 2.7703 -0.5081 -1.9072 1.9959 -1.5279 0.2583 2.3366 1.7060 1.3610 -2.2988 0.0358 -1.4142 0.7442 -1.0325 0.7072 1.1704 0.0234 0.0607 -2.1548 0.8441 0.7179 -3.0664 0.4079 0.3066 -0.8888 -0.2026 -0.1522 0.3261
1.7270 0.0968 -1.2706 -1.2438 -1.0515 2.8030 -0.0777 -1.5387 2.3466 -1.9772 -0.0846 2.0107 1.8445 0.7678 -2.4855 0.4475 -1.0829 1.0742 -1.4803 0.3394 0.8361 -0.1713 1.0532 -1.8632 0.7301 1.3574 -2.8777 0.3997 0.3021 -0.9015 -0.1984 -0.1591 0.3280

>  <OB_ATOM_TYPES> (1phfA1)
N.ar C.ar C.ar C.ar C.ar C.ar C.ar C.ar N.ar C.ar C.ar

>  <ENSEMBLE_RMSD> (1phfA1)
0.000 0.335 0.360

$$$$
