
 OpenBabel03071213D

 30 32  0  0  0  0  0  0  0  0999 V2000
   -1.7820    4.1410   28.3860 C   0  0  0  0  0
   -5.0450    9.4360   20.0230 N   0  0  0  0  0
   -3.0570   10.4510   19.3200 N   0  0  0  0  0
   -2.5950    5.6420   23.3040 O   0  0  0  0  0
   -7.0380    5.0670   24.3810 O   0  0  0  0  0
   -6.4450    2.7280   23.5830 O   0  0  0  0  0
    0.0540    1.7490   23.9040 C   0  0  0  0  0
   -1.2340    1.3360   23.2080 C   0  0  0  0  0
   -0.0730    3.1140   24.5260 C   0  0  0  0  0
   -1.6090    2.3590   22.1590 C   0  0  0  0  0
   -0.3530    4.0580   23.3900 C   0  0  0  0  0
   -3.8870    4.4550   20.5690 C   0  0  0  0  0
   -5.1570    4.7810   22.6350 N   0  0  0  0  0
   -1.0870    6.7790   19.5080 C   0  0  0  0  0
   -3.5280    5.2410   26.9810 C   0  0  0  0  0
   -3.2240    2.8500   26.7350 C   0  0  0  0  0
   -1.7560    5.6350   19.8730 C   0  0  0  0  0
   -1.7150    8.0070   19.4520 C   0  0  0  0  0
   -4.4930    5.2050   26.0050 C   0  0  0  0  0
   -4.2000    2.8170   25.7530 C   0  0  0  0  0
   -3.7080    6.9530   20.1380 C   0  0  0  0  0
   -3.9800    4.1220   22.0690 C   0  0  0  0  0
   -1.6380    3.6540   22.8470 N   0  0  0  0  0
   -3.7400    9.3550   19.6970 C   0  0  0  0  0
   -2.8870    4.0670   27.3290 C   0  0  0  0  0
   -2.6780    4.5080   22.8020 C   0  0  0  0  0
   -3.0970    5.7160   20.1980 C   0  0  0  0  0
   -3.0700    8.1220   19.7700 C   0  0  0  0  0
   -4.8070    4.0070   25.3830 C   0  0  0  0  0
   -5.9300    4.1070   23.9760 S   0  0  0  0  0
  1 25  1  0  0  0
  2 24  1  0  0  0
  3 24  2  0  0  0
  4 26  2  0  0  0
  5 30  2  0  0  0
  6 30  2  0  0  0
  7  8  1  0  0  0
  7  9  1  0  0  0
  8 10  1  0  0  0
  9 11  1  0  0  0
 10 23  1  0  0  0
 11 23  1  0  0  0
 12 22  1  0  0  0
 12 27  1  0  0  0
 13 22  1  0  0  0
 13 30  1  0  0  0
 14 17  1  0  0  0
 14 18  2  0  0  0
 15 19  2  0  0  0
 15 25  1  0  0  0
 16 20  1  0  0  0
 16 25  2  0  0  0
 17 27  2  0  0  0
 18 28  1  0  0  0
 19 29  1  0  0  0
 20 29  2  0  0  0
 21 27  1  0  0  0
 21 28  2  0  0  0
 22 26  1  0  0  0
 23 26  1  0  0  0
 24 28  1  0  0  0
 29 30  1  0  0  0
M  END
>  <MOLID> (1pphA1)
1pphA1

>  <SMILES_CANONICAL> (1pphA1)
Cc1ccc(cc1)S(=O)(=O)N[C@H](C(=O)N1CCCCC1)Cc1cccc(c1)C(=N)N	

>  <FINGERPRINT> (1pphA1)
0000000000000000000000001101000000100001100000000001001000000000000000010001000000000001000000000000000110110001000001100000000000000000000010001001000000001001000000000000000000000000000000000000000000000011000000000000000000100000000000000001000000000000000000000000000000001001000000000000000001001000000010001100001100001000001100000010000000000000011100000000000110110000000000000000010000000000100010000000001100000000000000000000000000000001100000000010000000000000000000000000000000001100100000000000100000000000000000000010000000000000000000100000000000000000000000000000000001100000000001000000100000000000000000000110011000000001100000000000010000000001000000000011100000000100100001100000000100000001000000000000000000000001101110110101000000000000001110000000001000000000000010000000000010000000000000000000000000000100010010000000000000000000000000000001000000000000000000000010110000001100000000000000010000001000001000000000011000000000000010110100000000000100000000000000001000000000000000010010011001100000

>  <MACCS166> (1pphA1)
000000000000000000000000000000011000010000100000011000100111100100100000101111101001110100110110011001010100011100001111110110011110000111011100111110101111011110111000

>  <OB_MW> (1pphA1)
428.188

>  <OB_logP> (1pphA1)
4.3908

>  <OB_PSA> (1pphA1)
124.73

>  <OB_MR> (1pphA1)
121.601

>  <OB_ATOMIC_CHARGES> (1pphA1)
0.0310276647 0.2047060215 0.2047060215 -0.2732928615 -0.1515840377 -0.1515840377 0.0035128278 0.0215609096 0.0215609096 0.0934387122 0.0934387122 0.0550064743 -0.0695998927 -6.65194e-05 -0.0028855246 -0.0028855246 -0.0042014717 0.0079722314 0.0196333983 0.0196333983 0.0037850146 0.1779505317 -0.2783620131 0.4765984158 -0.0217694661 0.2437199712 -0.0199723965 0.0971659337 0.1235428911 0.077243706

>  <MCT_HBD> (1pphA1)
3

>  <MCT_HBA> (1pphA1)
7

>  <ENSEMBLE_TOTAL> (1pphA1)
50

>  <ENSEMBLE_COORDS> (1pphA1)
0.4581 -2.1897 5.5308 -2.6901 3.8882 -3.3065 -1.0081 5.3639 -2.5991 -0.6653 -3.0307 -0.3229 -1.7927 1.7137 0.6171 -3.7042 0.1356 0.9533 4.0178 -2.4222 1.2963 2.9407 -3.4654 1.5153 3.4203 -1.0692 0.9619 1.9840 -3.5111 0.3421 2.4310 -1.1611 -0.1841 -0.0627 -0.5253 -2.2290 -1.7371 -0.5943 -0.4910 1.8822 2.3966 -3.7126 0.3632 -0.3890 3.7959 -1.4149 -2.0320 3.9130 1.5739 1.0824 -3.1743 0.9542 3.3706 -3.6906 -0.2345 0.2238 2.7586 -2.0472 -1.3762 2.7831 -0.6172 1.9073 -2.5559 -0.2788 -0.6829 -0.7360 1.4466 -2.1909 0.0892 -1.3767 4.1732 -2.9842 -0.2517 -1.5598 4.3929 0.1301 -2.0906 -0.3389 0.3748 0.8446 -2.6109 -0.3366 3.1146 -3.0763 -1.4868 -0.2824 2.2322 -2.2723 0.3584 0.8308
0.6134 -0.8354 5.6611 -1.0833 5.3579 -2.7001 -2.5478 3.5574 -3.0027 -0.4466 -3.2441 -0.2688 -2.6196 1.3525 0.2645 -3.8861 -0.7270 0.8254 3.9973 -2.8917 -0.5525 2.9498 -3.9460 -0.2470 3.3577 -1.5381 -0.7965 2.0537 -3.4930 0.8933 2.4191 -1.1570 0.3360 0.1973 -0.6114 -1.9336 -1.7403 -0.9113 -0.5274 2.1496 2.5202 -2.8916 -0.0467 0.5908 3.7142 -1.1153 -1.5609 4.0390 1.8533 1.1586 -2.4817 1.1549 3.4160 -3.0257 -0.7759 0.8166 2.6071 -1.8892 -1.3184 2.8362 -0.4796 1.7758 -2.3053 -0.2596 -0.8475 -0.5057 1.4510 -2.2120 0.5792 -1.3363 4.0036 -2.8090 -0.2240 -0.6447 4.4540 0.2206 -2.2260 -0.0814 0.5901 0.8002 -2.1866 -0.2109 3.0289 -2.7124 -1.7356 -0.1692 2.1509 -2.6112 -0.0447 0.6672
0.2760 -0.1673 6.1915 -1.7801 4.8164 -4.7344 -3.0283 3.1902 -3.6025 2.1591 -0.3449 1.1803 -2.5388 0.5743 0.1848 -3.0448 -1.8152 0.7277 2.2351 -5.0397 -0.1754 0.9914 -4.3551 -0.7071 2.9096 -4.1893 0.8831 1.3163 -2.9619 -1.2112 3.1968 -2.7944 0.3619 0.6329 -0.0005 -1.8433 -0.7788 -1.2268 -0.2633 1.5488 3.6856 -2.2447 -0.1132 0.7542 3.8971 -1.1598 -1.3344 4.5401 1.6261 2.2837 -1.8729 0.4465 4.1633 -2.8496 -0.6534 0.6769 2.6678 -1.7162 -1.4271 3.2023 -0.5903 1.9683 -2.7986 0.3781 -0.3244 -0.3898 1.9925 -2.1990 -0.1779 -1.8804 3.7611 -3.8470 -0.3736 -0.2943 4.8657 1.5892 -0.9543 0.2706 0.5870 1.4617 -2.1113 -0.6626 3.2687 -3.1394 -1.4669 -0.4644 2.2944 -2.0982 -0.7112 0.7011
-0.1965 -3.1219 5.7721 -1.0474 4.4409 -5.6850 -1.9635 4.6017 -3.5346 1.6461 0.5859 1.9378 -3.2418 1.0440 1.5269 -2.5117 -0.8246 0.0250 3.7729 -2.8842 -0.2241 2.6317 -2.3490 -1.0689 3.9300 -2.0703 1.0464 1.3483 -2.2670 -0.2621 2.6196 -2.0248 1.8110 1.0068 1.3249 -0.8534 -0.8223 0.9961 0.7048 0.3131 0.5137 -4.5196 -0.9419 -0.9321 4.8108 -1.0731 -2.9408 3.4610 0.7740 0.3831 -3.1492 -0.3250 1.6304 -4.9124 -1.4139 -0.1857 3.7955 -1.5843 -2.1319 2.3703 -0.0847 2.6064 -2.7026 0.2683 0.2982 -0.0138 1.5578 -1.5182 0.9640 -1.2051 3.9763 -4.3927 -0.7559 -2.3603 4.6306 1.2335 -0.1684 1.0562 0.5482 1.3718 -2.2647 -0.5200 2.7208 -3.9710 -1.7381 -0.8032 2.5232 -2.2253 0.0884 1.1186
0.4841 0.6540 5.7120 -0.0425 5.5357 -1.7947 -2.0917 4.4701 -2.1794 -0.0017 -3.4578 -1.7256 -2.8005 0.4909 0.0474 -3.6873 -1.5499 1.1835 3.4822 -2.6786 1.3743 2.4994 -1.5241 1.3363 2.9864 -3.8354 0.5272 2.2246 -1.1072 -0.0953 2.6866 -3.3804 -0.8896 -0.7905 -0.5592 -2.2265 -1.6389 -1.7704 -0.2994 1.8443 1.9756 -3.3011 -0.8841 -0.9726 4.3961 -0.1623 1.0968 3.3582 1.1769 0.7170 -3.0303 1.2262 3.1367 -3.0243 -1.5374 -1.3364 3.2789 -0.8845 0.7092 2.1595 -0.6999 1.9606 -2.1292 -0.4149 -1.2227 -0.9158 1.7863 -2.2442 -0.8829 -0.7896 4.4167 -2.1146 -0.1799 0.2953 4.4372 0.4476 -2.4367 -1.2051 -0.0355 0.7038 -2.4462 -0.0969 3.1294 -2.4208 -1.5582 -0.4559 2.1272 -2.5481 -0.7604 0.7428
-0.8431 -3.2163 6.0390 -1.1221 4.4917 -5.6455 -1.8786 4.7027 -3.4384 1.9726 0.5270 1.7800 -2.8677 1.2881 1.8363 -2.4602 -0.5164 0.1567 3.6984 -3.0054 -0.5166 2.5172 -2.4166 -1.2653 3.9750 -2.2233 0.7535 1.3010 -2.2961 -0.3635 2.7238 -2.1483 1.6106 1.1316 1.3100 -0.9494 -0.5707 1.0882 0.7706 0.1215 0.5031 -4.5461 -1.8717 -2.9136 3.7772 -0.5682 -1.1165 4.7458 0.6773 0.3607 -3.2122 -0.4868 1.6478 -4.9046 -2.1343 -2.1712 2.6861 -0.8681 -0.3161 3.5723 -0.0392 2.6249 -2.7274 0.4097 0.3314 -0.0395 1.6291 -1.5742 0.8529 -1.2136 4.0377 -4.3430 -1.0639 -2.3613 4.8486 1.4260 -0.1995 0.9497 0.5675 1.3654 -2.3234 -0.5629 2.7512 -3.9611 -1.6125 -0.8236 2.5706 -1.9868 0.2685 1.2860
-0.4711 -2.5981 6.1183 -2.7337 3.3492 -5.0623 -2.7405 3.7076 -2.7522 2.3459 0.3146 1.6583 -2.6420 1.2144 1.1276 -1.7726 -0.7789 -0.1256 1.4241 -4.2386 0.2060 1.8920 -3.5702 1.4839 0.8093 -3.2270 -0.7423 2.8351 -2.4237 1.1770 1.7639 -2.0785 -1.0110 1.5552 1.5934 -0.9517 -0.1278 1.0384 0.6951 1.2885 1.9131 -4.7437 -0.9188 -0.5006 4.8356 -1.0194 -2.6387 3.6967 1.8030 1.5962 -3.4226 0.0647 2.4545 -4.8795 -1.1691 0.1534 3.6879 -1.2922 -1.9293 2.4577 -0.2639 2.4314 -2.4773 0.8615 0.4487 -0.2340 2.2282 -1.5044 0.2373 -2.1239 3.2858 -3.8229 -0.8238 -1.9486 4.8339 1.8773 -0.2325 0.6599 1.0478 1.8200 -2.3313 -0.7421 2.7278 -3.7002 -1.3402 -0.5842 2.4510 -1.6153 0.2048 0.9306
0.2635 -1.4179 6.4177 0.5718 5.6182 -3.6985 2.2211 3.9659 -3.8995 1.1894 0.9437 0.6314 -2.8688 -0.0274 0.8492 -3.0652 -2.5211 0.8530 2.9381 -3.0489 1.4882 3.3109 -1.5861 1.6448 1.5873 -3.1902 0.8138 3.2432 -0.8679 0.3064 1.5777 -2.4378 -0.5044 -0.2427 -0.2483 -2.2227 -1.0482 -1.4536 -0.2641 -2.2843 2.3832 -4.0707 -0.5483 -2.6487 4.3910 -0.4989 -0.2262 4.3833 -1.9340 1.1633 -3.3655 -1.3733 3.3618 -4.2215 -1.0834 -2.6678 3.1563 -1.0789 -0.2538 3.0540 0.2628 2.1022 -2.9457 -0.3719 -0.2292 -0.7181 1.9365 -1.0443 -0.2986 0.9678 4.2953 -3.7453 -0.2668 -1.3786 5.0344 0.9756 -0.0696 -0.0405 -0.7088 1.0266 -2.8267 -0.0527 3.2153 -3.6322 -1.3839 -1.4268 2.4671 -2.2359 -1.3311 0.9631
-0.1499 -0.4427 6.2988 1.1393 5.0441 -3.2015 1.6573 3.8695 -1.2429 0.1245 -3.4284 -0.5318 -2.1273 1.0279 0.3431 -3.8170 -0.7586 0.7812 4.5253 -1.7219 -0.4521 3.8481 -3.0788 -0.4091 3.5276 -0.6311 -0.7924 2.6811 -3.0590 0.5595 2.3524 -0.6568 0.1656 -0.1997 -0.8742 -2.2293 -1.6434 -1.3869 -0.3348 -1.9879 2.1118 -3.7878 -2.1164 -0.6162 4.7609 0.1157 -0.4272 3.8344 -1.6771 0.7583 -3.3644 -1.1592 3.1213 -3.4668 -2.6566 -0.6281 3.5298 -0.4756 -0.4172 2.5090 0.3749 1.5853 -2.3752 -0.2579 -1.0588 -0.7249 1.7688 -1.9838 0.2302 1.0003 3.9504 -2.3675 -0.6779 -0.5032 4.9161 0.5495 -2.2861 -0.3599 -0.5539 0.5038 -2.6673 0.0691 2.8456 -2.7388 -1.8090 -0.5255 2.3585 -2.4253 -0.3337 0.7596
-0.3210 -1.1080 6.7182 0.8760 5.3168 -3.6269 2.4651 3.5985 -3.7557 0.8969 0.9155 1.0123 -3.0579 0.0518 0.8799 -3.3498 -2.4316 1.0161 4.0155 -2.7438 -0.4364 4.2215 -1.2600 -0.2015 2.6297 -3.0319 -0.9809 3.1099 -0.6780 0.6443 1.5561 -2.4088 -0.1093 -0.2568 -0.4340 -1.9581 -1.1857 -1.5026 0.0337 -2.0613 2.1617 -4.0932 -1.0289 -2.4267 4.7107 -0.9325 -0.0073 4.5845 -1.8036 0.9678 -3.3067 -1.1074 3.1012 -4.2233 -1.4907 -2.5010 3.4487 -1.4435 -0.0948 3.2286 0.3901 1.8528 -2.7755 -0.4943 -0.3072 -0.4716 1.8148 -0.9930 0.0786 1.2230 3.9795 -3.6374 -0.7583 -1.1301 5.3032 0.7853 -0.0912 0.3087 -0.6270 0.8182 -2.6704 0.1607 2.9419 -3.5325 -1.7355 -1.2916 2.6863 -2.4904 -1.2640 1.1256
0.5018 0.3472 5.5121 2.4489 3.3459 -1.2003 0.9582 5.0733 -1.7179 -0.2468 -3.5736 -0.4833 -3.1417 0.5841 0.0842 -3.8650 -1.6111 1.0273 4.2318 -1.5975 0.6226 3.4777 -2.8119 1.1284 3.2889 -0.5095 0.1480 2.4502 -3.2905 0.1225 2.2894 -1.0558 -0.8506 -0.3845 -0.8571 -2.3347 -1.9574 -1.5499 -0.6315 -1.6780 2.4479 -3.7141 -0.8979 -1.2073 4.1399 -0.3047 0.9670 3.2487 -1.5589 1.0337 -3.4117 -0.7901 3.3221 -3.2083 -1.6199 -1.4904 3.0411 -1.0935 0.6602 2.0689 0.3811 1.5401 -2.0523 -0.5415 -1.2041 -0.8662 1.5968 -2.1918 -0.2754 1.2561 3.8020 -1.7314 -0.2293 0.0756 4.2519 0.2638 -2.4562 -0.5627 -0.5752 0.5936 -2.6062 0.2772 2.8511 -2.3394 -1.7493 -0.5126 1.9779 -2.7880 -0.7246 0.6126
-0.9118 -3.9464 4.9125 -2.1357 3.4951 -5.5278 -2.8021 3.5727 -3.2851 2.0721 0.6941 2.2276 -2.6155 1.7795 1.9766 -2.2509 0.2814 0.0031 2.5412 -3.6343 0.0718 2.7014 -3.0833 1.4759 1.7643 -2.6694 -0.8023 3.3282 -1.7026 1.4477 2.4116 -1.2987 -0.7893 1.2887 1.7688 -0.7145 -0.2363 1.4247 1.1186 0.8798 0.6707 -4.3508 -1.0741 -1.4692 4.5799 -1.4953 -2.9581 2.7148 1.3987 0.7904 -3.0013 -0.1837 1.4025 -4.7263 -1.2634 -0.3912 3.7973 -1.7036 -1.7918 1.8759 -0.3114 2.4399 -2.5334 0.7167 0.7213 0.2273 2.5797 -0.8274 0.5709 -1.9587 3.1693 -4.1955 -1.1868 -2.8008 4.0133 1.8409 0.2121 1.1177 0.8027 1.6054 -2.1112 -0.7959 2.3273 -3.7851 -1.5859 -0.5539 2.3923 -1.8151 0.7721 1.2996
0.6478 0.0327 6.5261 0.1937 3.1043 -5.3704 2.4594 3.2208 -4.7903 -1.4958 -1.8786 -2.0786 -3.7050 -2.2341 2.1599 -1.5401 -3.1225 1.2934 3.2524 -1.1806 -1.7511 2.2971 -1.8194 -2.7409 2.4986 -0.3635 -0.7218 1.2306 -2.6301 -2.0281 1.4373 -1.2040 -0.0398 -1.5682 0.8741 -0.9680 -2.4374 -0.8886 0.4275 1.4470 3.2010 -0.6633 0.6120 -0.6722 4.1283 -1.4718 -0.5164 5.3573 0.3214 2.3586 -0.3032 1.7308 3.4283 -1.9578 -0.0372 -1.0871 3.0270 -2.1670 -0.9800 4.1690 -0.1028 2.0019 -2.6644 -1.1999 -0.3894 -0.2082 0.5694 -1.8309 -1.0189 1.2134 3.0535 -4.4386 -0.1344 -0.3817 5.3379 -0.7490 -1.4375 -1.2061 -0.4037 1.7522 -1.2614 0.9139 2.8203 -2.9958 -1.4781 -1.2439 3.0425 -2.3342 -1.9876 1.7377
0.6687 3.2313 3.2925 0.0283 5.1133 -0.1353 -1.9431 3.9994 -0.7314 -0.7543 -3.7887 -1.2423 -3.8940 -0.9802 0.9017 -2.0942 -2.5402 1.6523 3.3725 -3.5751 0.9166 2.7346 -2.2009 0.8418 2.4294 -4.6353 0.3805 2.2583 -1.8995 -0.5660 1.9811 -4.2866 -1.0271 -0.3195 -0.6646 -2.2365 -1.9435 -1.4531 -0.6526 2.1050 2.2486 -2.6031 -1.4634 2.3530 2.3201 0.3677 0.8289 2.7593 1.5439 0.9108 -2.6542 1.4192 3.2452 -2.0156 -2.1981 1.3606 1.7864 -0.4357 -0.2398 2.1968 -0.3714 1.7224 -1.4135 -0.4881 -1.4066 -0.9236 1.3982 -2.9588 -1.0600 -0.6393 4.0570 -0.7266 -0.1230 2.0790 2.8024 0.0106 -2.8367 -1.0829 0.3593 0.6494 -2.0714 0.1369 2.9685 -1.3895 -1.6665 0.0142 1.7123 -2.4796 -1.3153 0.9688
-0.6133 3.3137 4.5958 -2.0512 3.0817 -3.7028 -1.5895 5.0391 -2.5078 2.0571 -2.2286 1.2943 -3.2884 -1.3649 0.7602 -1.5091 -2.6390 1.9746 2.5390 -4.7062 -2.6879 1.7563 -3.4302 -2.9263 3.0797 -4.7505 -1.2715 0.6643 -3.2730 -1.8869 1.9707 -4.5499 -0.2543 0.9758 -0.3421 -1.2776 -0.9302 -1.4147 -0.1838 1.8386 3.3296 -0.7225 -1.2555 2.3331 2.3877 -1.1184 0.8997 4.3401 1.8904 1.8810 -0.6458 0.8414 3.9344 -1.3919 -1.5552 1.2826 1.6041 -1.4334 -0.2316 3.4878 -0.1726 1.7936 -1.9169 0.4850 -1.0340 -0.0252 1.2150 -3.3481 -0.5458 -1.3226 3.7862 -2.7622 -1.0105 2.1271 3.8032 1.3356 -2.2498 0.2936 0.9127 1.1403 -1.1990 -0.2018 3.1362 -2.0172 -1.5974 -0.0531 2.1637 -1.9126 -1.4625 1.2203
-1.4178 2.3980 5.4851 2.5127 4.3374 -1.6079 0.5314 4.2281 -0.3623 -0.4144 -3.1291 -1.8633 -3.2714 -2.6442 1.9706 -0.8193 -3.0285 1.7248 4.0432 -1.3172 -0.9121 2.9623 -0.2839 -0.6609 3.4973 -2.5035 -1.6829 1.7624 -0.9107 0.0223 2.2778 -3.0916 -0.9987 -1.4594 -0.3236 -1.8983 -2.0725 -1.7068 -0.0418 0.5808 1.6770 -4.4049 -0.7812 0.1055 4.7214 -2.2560 1.4506 3.3461 -0.2504 0.6432 -3.8168 1.0541 2.6761 -3.6394 -0.8540 -0.9129 3.8474 -2.3412 0.3432 2.4068 -0.0208 1.7444 -1.6702 -0.9117 -1.0747 -0.7003 1.3016 -2.0549 -0.7391 1.2678 3.7954 -1.3485 -1.5155 1.3294 4.4621 -0.0078 -2.2004 -1.1666 -0.5286 0.6640 -2.5004 0.7402 2.7084 -2.2208 -1.6511 -0.7883 2.6422 -1.9586 -2.1304 1.6063
-0.2080 2.5969 4.5089 2.9316 2.8064 -2.2769 1.8103 4.8610 -2.3256 -0.2616 -3.6747 -1.3810 -3.6866 -2.0580 1.4884 -1.4834 -3.2085 1.7175 3.9233 -2.0529 0.1372 2.8619 -0.9735 0.2211 3.3046 -3.3877 -0.2316 2.0641 -0.9073 -1.0655 2.5047 -3.2729 -1.5160 -0.9840 -0.5365 -2.1086 -1.9964 -1.8744 -0.3876 -1.8193 3.0479 -1.0917 0.2393 0.5479 3.1416 -2.0317 1.3626 3.3728 -1.9568 1.6241 -1.3416 -0.6527 3.6683 -1.3454 -0.1819 -0.4977 2.4077 -2.4785 0.2362 2.5754 0.3243 1.6030 -2.1566 -0.6965 -1.3548 -0.8627 1.5266 -2.2089 -1.4112 1.7779 3.5639 -2.1807 -0.7256 1.5021 3.6557 0.1862 -2.5371 -1.2333 -0.9175 0.9229 -1.8303 0.4626 2.9158 -1.8984 -1.5932 -0.6716 2.1223 -2.2438 -2.0425 1.2960
-1.3496 3.2967 4.8758 -1.3530 4.7628 -3.4995 -2.5585 2.8247 -2.9711 2.3068 -2.1329 1.2537 -3.1287 -1.3641 0.7109 -1.3575 -2.6020 1.9556 2.6249 -4.4772 -2.7936 1.6066 -3.3598 -2.9070 3.3405 -4.4146 -1.4577 0.6510 -3.3807 -1.7294 2.3431 -4.4258 -0.3132 1.1539 -0.3417 -1.2915 -0.7638 -1.3739 -0.1894 1.6338 3.4006 -0.7091 -0.5453 1.0363 4.1614 -2.1956 2.1946 2.8193 1.8360 1.9641 -0.6423 0.5932 3.9025 -1.3982 -0.5788 -0.0247 3.3346 -2.2260 1.0463 1.9309 -0.1349 1.6728 -2.0236 0.6545 -1.0152 -0.0325 1.3760 -3.3572 -0.4710 -1.4660 3.5326 -2.8796 -1.4005 2.1797 3.9028 1.5237 -2.2134 0.3026 0.9738 1.1320 -1.2549 -0.3270 3.0036 -2.0757 -1.4741 -0.0403 2.1933 -1.7583 -1.4259 1.1985
-1.4030 3.2247 4.8161 -1.8996 4.7339 -3.5427 -2.8438 2.6715 -2.9610 2.7088 -1.7125 1.0462 -2.7280 -1.5988 0.6779 -0.7525 -2.6065 1.8201 1.4616 -5.6115 -1.6089 0.4200 -4.5183 -1.7445 2.4120 -5.3166 -0.4647 1.0767 -3.1572 -1.8745 3.0290 -3.9378 -0.6048 1.3104 -0.0215 -1.4884 -0.4268 -1.2778 -0.3230 1.3280 3.7425 -0.8540 -0.3423 1.0875 4.0525 -2.1721 2.0366 2.7801 1.7183 2.3442 -0.8246 0.2044 4.1166 -1.4921 -0.2730 0.0340 3.2184 -2.0908 0.8981 1.8838 -0.2472 1.8230 -2.1446 0.9446 -0.7555 -0.2182 1.9966 -2.9362 -0.7740 -1.8398 3.5041 -2.9150 -1.3433 2.1156 3.8348 1.9571 -1.8455 0.0762 0.9497 1.4179 -1.4258 -0.6141 3.1174 -2.1589 -1.1999 -0.0869 2.1097 -1.3408 -1.4850 1.1040
-1.0846 4.0762 3.4274 -0.5983 5.1820 -0.1756 -2.1622 4.0746 -1.5223 -0.7287 -3.8432 -1.5090 -3.0115 -1.9819 1.7522 -0.5422 -2.3181 1.9601 3.6017 -3.9630 0.0918 3.0933 -2.5340 0.0455 2.5306 -4.9438 -0.3499 2.5034 -2.2163 -1.3151 1.9702 -4.5532 -1.7057 -0.2013 -0.6278 -2.0639 -1.5365 -1.5799 -0.2890 2.2649 2.2440 -1.5244 -0.0622 1.9873 2.5067 -2.4728 2.1582 2.6824 1.7409 0.9163 -1.7889 1.4219 3.2636 -1.2816 -0.1569 0.7237 2.0558 -2.5701 0.7960 2.1860 -0.4952 1.7834 -1.4619 -0.1778 -1.5734 -0.8780 1.4860 -3.1878 -1.6683 -0.9755 4.1247 -0.9815 -1.2648 2.7237 2.8483 0.1383 -2.9796 -1.3699 0.4156 0.6864 -1.7385 -0.0115 3.0215 -1.2547 -1.4553 0.0976 1.8970 -1.6594 -1.5570 1.4250
-3.5940 -3.9533 3.0092 -0.0532 5.0146 -3.3789 -2.0098 4.4356 -4.5219 0.4130 -2.4306 0.1293 -0.1489 1.7092 3.4970 -1.4794 2.0829 1.4120 5.0398 -2.1149 0.1867 3.9739 -3.1922 0.2483 4.4186 -0.7600 -0.0891 2.9110 -2.8337 1.2711 3.3348 -0.4507 0.9243 1.1836 0.5459 -1.1002 0.7357 0.8255 1.2867 -1.3671 0.3129 -3.9280 -1.6639 -2.4548 3.5557 -3.4145 -1.6650 2.0749 -0.4656 -0.0744 -2.8594 -1.5209 1.6104 -4.2452 -0.9820 -1.3050 3.4079 -2.6707 -0.4304 1.9120 0.0028 2.2734 -2.4764 0.5490 -0.0609 0.1281 2.3581 -1.5238 0.9914 -0.9721 4.0781 -3.8143 -2.9202 -2.6427 2.8532 1.1050 -1.4451 0.3992 0.1782 0.8678 -2.1457 -0.8019 2.6288 -3.4955 -1.4945 -0.2593 2.5439 -0.6449 1.2118 2.2240
1.1187 -3.8425 5.0077 2.8455 0.3034 -4.2221 3.4106 2.5434 -3.8324 -0.3048 -2.0134 -0.6281 -2.5989 0.9108 2.3398 -4.1469 -1.0527 2.2629 3.0990 1.3204 -0.1816 2.9892 -0.1135 -0.6622 1.7288 1.9390 0.0192 2.1258 -0.9253 0.2824 0.8503 1.0760 0.9061 -1.7740 0.2797 -1.7869 -2.5800 -0.6432 0.2974 -0.6814 3.5760 -3.3743 -0.8286 -3.6611 3.4449 0.2792 -1.6475 4.2140 -1.4870 2.5822 -2.6854 0.5653 3.2741 -3.7804 -1.7197 -2.9365 2.7443 -0.6987 -0.8698 3.4748 0.3543 1.0237 -2.8996 -1.4447 0.0844 -0.3162 0.8312 -0.2994 0.4411 2.5110 1.5985 -3.8721 0.2025 -2.9892 4.2143 -0.2647 -0.8591 -0.2019 -0.9833 1.3596 -2.4363 1.1038 1.9485 -3.5258 -1.6641 -1.4871 2.7678 -2.8384 -0.4794 1.9885
-0.7575 -4.6034 4.6214 0.3430 0.9953 -6.2878 2.2191 1.3585 -4.9371 1.4833 0.6340 2.4525 -3.2874 1.2380 2.7237 -2.9442 0.0982 0.5185 4.0393 -1.6077 -1.1510 4.3185 -1.2159 0.2865 2.9115 -0.7803 -1.7348 3.0560 -1.2616 1.1257 1.6736 -0.8454 -0.8593 0.3351 2.0697 -0.2183 -0.9687 1.2934 1.6548 -2.0470 2.6803 -3.1368 -1.3119 -2.1646 4.7023 -1.4534 -3.3554 2.5951 -1.5308 2.5800 -1.7834 -1.2777 2.3235 -4.1809 -1.6952 -1.0184 4.1117 -1.8625 -2.1157 1.9615 0.5266 1.6836 -2.6925 -0.0428 0.8411 0.5906 2.0093 -0.4795 0.5025 0.9227 1.3676 -5.0889 -1.1866 -3.3754 3.9122 1.2015 0.3228 1.2944 -0.2990 2.0843 -1.5643 0.0590 1.8002 -3.9493 -1.9839 -0.9908 2.6907 -2.4499 0.4435 1.8402
-3.9387 -2.3869 3.8690 -2.8134 4.3477 -4.0432 -2.5120 2.1848 -4.8925 -0.7996 -2.2719 0.0353 1.6903 1.0766 3.1382 0.1495 2.2720 1.5714 3.6967 -4.1496 0.3828 2.2765 -4.6376 0.5907 3.7591 -2.6352 0.4145 1.3338 -4.0030 -0.4131 2.7857 -2.0269 -0.5772 0.9654 0.1418 -1.6472 1.3643 0.1633 0.7844 1.0746 3.9003 -2.2348 -1.4765 -1.9607 3.7459 -3.0216 -0.2985 2.8933 1.4086 2.5735 -1.7535 -0.0237 4.0842 -2.9880 -0.4227 -1.2124 3.3733 -1.8815 0.5030 2.4853 -0.6191 1.7370 -2.7864 0.4576 -0.2862 -0.2891 1.4514 -2.5608 -0.3694 -2.1252 3.1501 -4.1044 -2.8239 -1.4894 3.4845 0.3129 -1.7922 -0.2004 0.5889 1.5352 -2.0006 -0.9005 2.9604 -3.2746 -0.6301 0.0585 2.7057 0.6730 1.0228 2.1003
-0.7794 3.7593 3.0236 0.6955 4.7413 -0.0488 2.4972 3.3137 -0.5102 0.1139 -3.9027 0.0552 -3.8903 -1.7768 1.0297 -1.8922 -2.6827 2.2331 4.5140 -2.6782 -1.4880 3.5213 -1.5735 -1.7929 3.7946 -3.9406 -1.0561 2.5962 -1.3302 -0.6141 2.8754 -3.6615 0.1176 -0.1081 -1.0382 -1.7716 -1.6761 -1.9774 -0.2130 -1.5691 2.3225 -2.8147 -1.9667 2.2686 1.4000 -1.0333 1.3282 3.4289 -1.3759 0.8915 -2.6632 -0.7322 3.1837 -2.2092 -2.3663 1.0522 0.9882 -1.4612 0.0174 2.9775 0.5180 1.3494 -1.2229 -0.2604 -1.5514 -0.3489 1.9740 -2.5698 -0.1874 1.2286 3.5993 -0.6156 -1.2566 2.4055 2.6575 0.6048 -2.7923 -0.1596 -0.3753 0.4198 -1.8967 0.3469 2.6746 -1.3798 -2.0765 -0.1210 1.7889 -2.4609 -1.7308 1.2923
-1.5673 4.2690 2.6031 -1.8456 5.0758 -1.0901 -2.6185 3.3353 -2.4532 2.6688 -1.8471 1.0021 -2.7116 -2.1860 1.3557 -0.5112 -2.2410 2.5434 1.7093 -5.8534 -1.3850 0.5321 -4.8990 -1.4189 2.7785 -5.3508 -0.4343 0.9905 -3.4959 -1.7637 3.1958 -3.9336 -0.7832 0.7750 -0.4216 -1.4728 -0.5728 -1.7873 0.0282 2.0100 3.1717 -1.1741 -2.4840 2.2480 1.4367 -0.6782 1.9956 3.0292 1.9983 1.7200 -1.1625 0.8738 3.8539 -1.4054 -2.4654 0.9301 1.1634 -0.6700 0.5750 2.7371 -0.3925 1.7898 -1.5580 0.7192 -1.0983 -0.1252 2.0403 -3.0623 -0.8608 -1.6709 3.8616 -1.7269 -1.5482 2.8012 2.3982 1.8813 -2.0515 0.0740 0.8428 1.0551 -1.3438 -0.3758 3.1346 -1.5903 -1.5282 0.0543 1.8394 -1.3755 -1.6432 1.5377
-2.0637 -4.2466 5.2185 -1.1463 1.4916 -6.0788 1.0392 0.9163 -5.4629 2.1741 -0.0610 2.0799 -2.2184 1.8620 2.9235 -2.4181 0.5931 0.7790 3.4658 -2.6218 -1.9559 4.1172 -2.2972 -0.6263 2.3822 -1.6185 -2.3007 3.0810 -2.1498 0.4697 1.3788 -1.4717 -1.1716 1.1309 1.7521 -0.3677 -0.0992 1.2506 1.6618 -1.3346 3.7850 -2.4399 -1.8470 -3.0911 3.0096 -1.7537 -1.7898 5.0512 -0.5842 3.2732 -1.3085 -1.1719 3.2390 -3.6580 -1.7258 -1.9784 2.2630 -1.6299 -0.5924 4.2391 0.3850 1.6002 -2.7707 0.5212 0.6389 0.4655 2.0692 -1.1948 0.0734 -0.1063 1.4674 -5.1678 -1.8819 -2.9883 4.4567 1.6495 -0.2352 0.9793 0.2331 2.2144 -1.4597 -0.2829 2.1010 -3.8278 -1.6449 -0.6749 2.8947 -1.7186 0.8268 2.0315
-4.7857 2.2098 2.5745 -0.9252 5.5601 -2.1280 -0.2859 4.5595 -0.1100 -0.3785 -3.0981 -0.7332 0.0055 -2.2086 2.4091 1.2393 -0.2601 3.3591 4.2817 -4.4606 -0.1177 2.9399 -5.1545 -0.2453 4.1035 -3.0067 0.2724 2.0342 -4.4107 -1.2076 3.1746 -2.2942 -0.6911 1.2199 -0.1570 -1.5358 1.2671 -0.6250 0.8529 -1.3756 1.5817 -3.7171 -2.2887 2.1759 2.7731 -3.4516 0.2095 1.9676 -0.5028 0.5580 -3.1720 -1.4110 2.8046 -3.1580 -1.1034 1.5452 2.6811 -2.1708 -0.4671 1.8787 0.2558 2.1586 -1.5161 0.5998 -0.9599 -0.4158 1.9241 -3.0197 -0.8210 -0.5829 4.4515 -1.3763 -3.5084 1.4747 2.4167 0.6714 -2.4509 -0.6818 0.2660 0.8283 -2.1017 -0.5664 3.1017 -2.0121 -1.0378 0.1632 2.2440 0.3917 -0.8090 2.3116
-3.1986 -3.8210 3.3530 -2.7278 1.9891 -4.8751 -1.4369 0.0661 -4.5491 2.6985 -0.3356 2.0151 -0.5928 2.2037 3.5372 -1.6101 2.1627 1.2564 2.9920 -3.7246 -1.4336 3.7007 -3.4016 -0.1337 2.2143 -2.5245 -1.9383 2.7143 -2.8901 0.8977 1.2643 -1.9913 -0.8815 1.7514 1.2159 -0.6641 0.8141 1.4540 1.5647 0.1054 4.1346 -2.4769 -2.5065 -2.0389 1.7433 -1.9179 -1.8223 4.0847 0.9264 3.3728 -1.5538 -0.7076 3.4986 -3.3380 -1.9415 -0.8518 1.4634 -1.3102 -0.5377 3.7790 -0.0296 1.3390 -2.4581 1.0393 0.4886 0.4641 1.9644 -1.7701 0.3685 -1.6723 1.3217 -4.2811 -2.5060 -2.5338 3.1071 1.9842 -0.5568 1.0356 0.8517 2.0291 -1.5281 -0.7758 2.0455 -3.3293 -1.3375 -0.0630 2.5194 -0.7498 1.5418 2.2515
-4.4080 2.7163 2.7038 -0.0350 5.4804 -1.7700 1.7415 4.1505 -2.5197 2.9524 -0.2167 0.0796 -0.7901 -2.8512 2.7574 0.9960 -1.1042 2.7870 3.5276 -4.9722 -1.0601 2.0605 -4.6860 -0.8031 4.4089 -3.8514 -0.5458 1.6577 -3.3186 -1.3244 3.9613 -2.5139 -1.0996 0.0576 -0.6522 -1.5820 -0.0352 -1.8388 0.5529 -2.5576 2.0313 -2.2541 -3.7984 0.2912 2.6386 -2.0450 1.9618 2.5878 -1.9493 0.7455 -1.9642 -1.7929 3.1338 -2.3462 -2.8943 -0.6984 2.5268 -1.0722 0.8890 2.4680 0.2012 1.8532 -1.8204 0.6727 -0.8000 -0.2107 2.5589 -2.3035 -0.8112 0.4990 4.2589 -2.1353 -3.3562 1.6729 2.6533 2.1589 -1.0796 -0.3079 -0.6235 0.6570 -1.7527 -0.3612 3.0407 -2.1110 -1.4801 -0.3937 2.4250 -0.2551 -1.6020 2.2384
-2.8239 3.5159 3.8591 -0.5770 2.8167 -4.2993 -0.0307 4.9058 -3.3948 -1.2995 -2.3330 -1.5388 -1.6892 -2.6100 1.8980 0.1222 -2.3766 3.6017 2.8224 -3.0636 -3.1945 1.7024 -4.0124 -3.5706 3.2734 -3.2724 -1.7638 0.6132 -4.1112 -2.5188 2.1280 -3.2767 -0.7682 1.3179 -0.3165 -0.6488 0.6145 -1.7464 1.1949 0.5742 3.2605 0.4506 -1.0899 1.7411 4.1884 -2.7039 1.5176 2.3950 0.9893 1.8705 0.4918 0.1694 3.8079 -0.7094 -0.5459 0.5494 3.8831 -2.1163 0.2296 2.0741 0.5672 1.7243 -1.8897 0.2103 -1.1912 -0.1068 0.8348 -3.2000 -1.4185 -0.1508 3.6137 -3.2526 -2.2222 2.2328 3.4257 -0.1580 -2.3015 -1.0707 0.9421 1.1193 -0.6236 0.1838 3.0136 -1.9282 -1.0922 -0.2518 2.8046 -0.5654 -1.8556 2.4303
-1.7860 3.8098 3.4515 -1.5371 3.4178 -3.6612 -0.4001 5.3448 -2.9673 -1.1893 -2.0783 -1.9760 -1.4565 -2.5899 1.5439 0.4263 -2.4040 3.1799 1.6596 -5.6252 -1.2457 2.0734 -4.4449 -0.3874 0.3978 -5.3103 -2.0267 2.1843 -3.1780 -1.2185 0.5734 -4.0332 -2.8290 1.3470 -0.0653 -1.0030 0.8022 -1.6524 0.7752 0.9311 3.3938 0.5499 -2.2190 1.7222 2.1339 -0.4655 1.7424 3.8054 1.2903 1.9983 0.3771 0.2847 4.0488 -0.4304 -1.9196 0.4545 1.7960 -0.1437 0.3776 3.4314 0.2901 2.0617 -1.8287 0.3227 -1.0415 -0.4745 0.9569 -2.9388 -1.9579 -0.6742 4.0786 -2.8073 -1.4578 2.3914 3.1730 -0.0452 -2.0845 -1.5113 0.9515 1.3452 -0.7497 -0.0373 3.3577 -1.6684 -0.8427 -0.2494 2.4658 -0.3175 -1.8488 2.0600
-2.6135 3.0986 4.6928 1.6284 4.6925 -2.8918 2.8529 2.7500 -2.4375 0.2016 -3.8370 -0.7940 -2.3933 -3.0757 2.4749 0.0286 -2.4516 2.4656 4.0059 -1.5613 -2.9779 3.0133 -0.5515 -2.4410 3.3936 -2.9463 -3.0418 2.4436 -0.9945 -1.1054 2.8003 -3.3501 -1.7055 -0.7690 -0.7985 -1.5884 -1.4071 -2.0374 0.3720 -1.6139 2.8236 -0.7215 -1.0721 1.6745 3.3279 -3.2626 0.8299 3.9281 -1.7201 1.3805 -0.8453 -0.5348 3.4658 -1.2042 -0.7715 0.5257 2.6955 -2.9298 -0.4109 3.2517 0.3829 1.3845 -2.0429 -0.2313 -1.4992 -0.3509 1.8923 -2.3290 -1.2274 1.7176 3.3932 -2.4295 -2.3601 1.8243 3.9799 0.6222 -2.6795 -0.7958 -0.7416 0.6819 -1.4495 0.5036 2.7153 -1.8901 -1.7254 -0.5668 2.6694 -1.3408 -2.1509 2.0828
-4.0284 3.0185 2.2360 -2.8431 3.0276 -2.3495 -1.8097 5.0571 -1.8175 -1.1959 -2.9695 -0.6700 0.1121 -2.0021 2.7840 1.7288 -0.1130 3.0157 3.1976 -5.3049 -1.0062 1.7630 -5.7417 -0.7837 3.4043 -3.8594 -0.5991 0.7806 -4.7849 -1.4323 2.3890 -2.9526 -1.2668 0.8526 -0.4263 -1.6115 1.2583 -1.0673 0.7173 1.9075 3.1938 -1.0590 -1.5467 2.6517 2.1666 -3.0469 0.7500 2.1162 1.9605 1.7457 -1.1413 0.7577 3.8420 -1.3187 -0.4736 1.8394 2.1665 -1.8857 -0.1172 2.1127 -0.3936 1.7450 -1.7182 0.3006 -1.1441 -0.3995 1.0453 -3.4305 -0.9956 -1.7405 3.7601 -1.9467 -2.8822 2.0821 2.1677 -0.0225 -2.5910 -0.7169 0.8507 1.0495 -1.4483 -0.4409 3.0873 -1.6523 -0.6436 0.4000 2.1709 0.6446 -0.7453 2.2794
-4.3522 3.2052 1.6173 0.0309 4.7154 0.1571 -1.7980 5.0895 -1.2525 -0.0396 -3.1760 -1.2795 -0.8184 -2.2468 2.1045 0.5662 -0.7148 3.5040 3.6314 -5.0908 0.5804 2.6542 -5.4562 -0.5215 4.2725 -3.7356 0.3615 2.4560 -4.3374 -1.5291 3.2222 -2.6681 0.1207 1.4380 -0.0954 -1.1930 1.1242 -0.9746 1.0539 -0.9342 1.6838 -3.5867 -2.1398 2.4831 2.5339 -3.3307 1.0263 1.0082 -0.0855 0.6671 -2.9947 -1.1414 2.8461 -2.9436 -1.1482 1.5831 2.6600 -2.2633 0.0522 1.1587 0.2228 2.1146 -1.0746 0.7375 -1.1343 -0.3529 2.2301 -3.0662 -0.8635 -0.7932 4.3392 -0.8873 -3.2775 2.1868 1.6841 0.9391 -2.5535 -0.8558 0.4682 0.8668 -1.7847 -0.5501 3.0665 -1.6326 -1.2169 0.3101 1.9669 -0.1046 -0.9862 2.2410
-4.2867 -2.7925 0.3592 -2.5761 3.9517 -4.4994 -2.2749 4.4751 -2.2339 3.6443 0.8430 1.0503 0.9137 -0.0057 3.3937 -0.6697 1.9189 3.2312 3.1902 -4.1670 1.1914 1.8388 -3.5355 0.9283 4.1366 -3.1837 1.8498 1.9795 -2.2350 0.1602 4.2188 -1.8863 1.0705 1.5916 1.2324 -1.0384 0.8728 1.4223 1.2736 -1.1249 0.0088 -3.4301 -1.8957 -2.3820 0.9587 -3.5556 -0.6877 1.4530 0.0362 0.0093 -2.5579 -1.8197 1.1434 -3.6297 -0.9239 -1.6110 1.4758 -2.4943 0.1506 1.9829 -0.2975 2.3836 -2.2002 1.3993 0.4787 0.2635 2.8948 -1.3439 0.8469 -2.0986 3.6586 -3.2362 -3.2627 -1.8986 0.9482 2.7665 0.0370 0.7418 0.4132 1.1426 -1.9377 -1.3809 2.3760 -2.9978 -1.2216 -0.2880 1.9833 -0.0135 0.7848 2.5990
-3.0639 3.5508 2.3092 -1.5970 2.8777 -3.6805 -1.2194 4.9975 -2.7685 -1.3683 -2.0397 -1.2526 -0.6918 -2.6668 2.6223 1.1651 -1.3405 3.6387 2.3209 -5.3789 -1.9381 0.8089 -5.4821 -1.9219 2.8057 -4.2612 -1.0375 0.1529 -4.1458 -2.2077 2.1181 -2.9560 -1.3821 1.4201 -0.1599 -0.8406 1.0443 -1.5754 1.1133 1.6109 3.5435 -0.0003 -2.8044 1.1126 1.8102 -1.1024 2.2565 3.1016 1.8243 2.1096 0.0597 0.7444 4.0583 -0.8907 -2.1184 -0.0422 1.8790 -0.3558 1.0129 3.1546 0.1789 1.8433 -1.7004 0.4170 -0.9975 -0.0861 0.6769 -3.1222 -1.3277 -0.9749 3.7148 -2.7717 -2.2722 2.3053 2.4420 -0.1706 -2.0856 -0.9605 1.1268 1.2906 -0.7477 -0.0052 3.1745 -1.7709 -0.8431 -0.0970 2.5685 0.1722 -1.4972 2.5864
-2.4642 3.9110 2.7636 -0.9980 4.8839 -2.5327 -0.0408 3.2215 -3.8774 -1.3134 -2.5664 -1.4326 -1.7973 -2.6820 2.0038 -0.0705 -2.1581 3.7337 2.9090 -3.1946 -3.2463 1.5156 -3.6043 -3.6862 3.2555 -3.6734 -1.8500 0.6787 -4.1548 -2.5497 2.2056 -3.2761 -0.8274 1.2878 -0.4693 -0.5750 0.5199 -1.8783 1.2750 1.1419 3.0925 0.7559 -2.5373 1.6802 1.6272 -1.3033 1.9293 3.6970 1.3454 1.6577 0.6940 0.6416 3.7452 -0.3079 -2.1662 0.3904 1.5307 -0.8976 0.5407 3.5809 0.3799 1.6633 -1.5307 0.1814 -1.3518 -0.0561 0.8555 -3.3504 -1.3603 -0.2840 3.7112 -2.6926 -2.0811 2.4794 2.7493 -0.1605 -2.4807 -1.0004 0.9694 0.9687 -0.3986 0.2446 3.0017 -1.4926 -1.3040 -0.2046 2.5355 -0.7136 -1.8321 2.4701
-3.3193 3.9418 2.6328 -0.5123 5.2942 -0.6441 0.8578 3.8284 0.5562 -0.0561 -3.9080 -1.3882 -1.5962 -2.1738 1.1670 0.1515 -1.6092 2.8618 4.2157 -4.0192 0.4367 3.6837 -2.5989 0.4436 3.1627 -4.9889 -0.0650 3.1227 -2.2186 -0.9149 2.6417 -4.5541 -1.4230 0.7594 -0.5944 -1.9748 0.6549 -1.1929 0.4068 -2.0125 1.8957 -2.8067 -1.3516 2.4323 2.9830 -3.0948 1.7878 1.4281 -1.2265 0.6750 -2.7859 -1.6372 2.9538 -2.0654 -0.6742 1.2962 2.7364 -2.3719 0.5532 1.1847 0.3148 1.7618 -1.2625 0.2753 -1.5999 -0.9570 2.1428 -3.1936 -1.3616 0.0028 4.0332 -0.4090 -2.6092 2.6837 2.3039 0.7716 -3.0050 -1.2346 -0.1138 0.6064 -2.0329 -0.4280 2.8835 -1.2601 -1.2072 0.3095 1.8158 -0.5464 -1.2799 1.6286
-2.2600 4.1807 2.1149 -2.5514 3.6354 -2.0199 -0.9666 5.3583 -2.1346 -1.3895 -2.9131 -1.4596 -1.0376 -2.3752 2.0400 1.0130 -1.4632 3.1428 2.2217 -5.6316 -0.5239 2.5131 -4.2072 -0.0925 0.8072 -5.7543 -1.0578 2.2158 -3.2285 -1.2156 0.5643 -4.7444 -2.1659 0.8646 -0.3628 -1.6025 0.8727 -1.4614 0.6029 1.8430 2.9727 -0.0346 -2.4651 1.7582 1.5214 -0.5408 2.5217 2.7808 1.8622 1.5746 -0.4210 0.8478 3.7721 -0.4560 -1.9897 0.5001 1.5056 -0.0273 1.1643 2.7513 -0.1718 1.9409 -1.6874 0.1165 -1.2685 -0.6472 0.8578 -3.4011 -1.7025 -1.2680 4.1200 -1.8521 -1.7069 2.8074 2.1771 -0.2059 -2.6097 -1.2810 0.8754 1.0654 -1.1822 -0.1891 3.2376 -1.3239 -0.7225 0.1876 2.1376 0.0173 -1.3758 2.0860
-4.8209 -0.8839 1.8120 -1.2931 4.6330 -1.0145 -3.3475 3.7381 -1.6936 3.9727 -0.7087 -0.0937 1.5287 -0.4481 2.6964 1.0762 2.0028 2.6498 1.8785 -4.5265 1.5937 3.2981 -4.0242 1.4091 0.8745 -3.4479 1.2381 3.5031 -3.4744 0.0084 1.1216 -2.9330 -0.1671 1.7393 0.4408 -1.8414 1.7832 0.8555 0.5346 -1.3831 0.7758 -4.0088 -3.0224 0.6572 2.6176 -2.4842 -1.0628 0.9982 -0.1363 0.2757 -3.4568 -1.9823 1.8465 -3.4584 -1.7400 1.0591 2.6583 -1.0998 -0.6299 1.0551 -0.2310 2.0289 -1.7880 1.6445 -0.2121 -0.4749 2.4935 -2.4838 -0.3117 -2.0450 3.6608 -1.6470 -3.4037 -0.4539 1.7663 2.8303 -1.1348 -0.2635 0.4137 0.8623 -2.3777 -1.3826 2.4966 -2.3045 -0.7370 0.3918 1.8520 0.9508 0.6994 2.0122
-5.2965 0.2061 2.0048 1.3337 4.1622 -1.9875 -0.7383 5.1408 -2.4524 0.3578 -3.3962 0.7483 1.2080 -0.4026 3.1101 1.1039 1.8558 2.0512 5.0066 -3.3275 -0.4765 4.0221 -4.3388 0.0771 4.4455 -1.9242 -0.3638 2.6706 -4.2120 -0.6021 3.0955 -1.8290 -1.0468 0.2227 -0.8227 -1.5692 1.2554 -0.2033 0.5801 -2.7834 1.4603 -2.1615 -3.0808 -0.8661 2.4237 -3.1719 1.4785 1.8119 -1.9959 0.2642 -1.9185 -2.1806 2.6596 -2.2498 -1.7381 -0.8303 2.4657 -1.7191 1.5082 1.8368 -0.0065 1.6479 -1.8978 0.4006 -1.1845 -0.1115 2.1907 -2.8458 -0.5423 -0.0318 4.0741 -2.1913 -3.8217 0.3311 2.0746 0.9830 -2.5709 0.0767 -0.6613 0.3556 -1.7743 -0.7355 2.7578 -2.1135 -1.0298 0.3928 2.1419 0.6948 0.4592 2.0560
-5.5553 0.2592 2.0744 -1.2642 4.8507 -2.8774 0.5262 4.3305 -1.4656 0.9391 -3.1960 1.2556 0.7722 -0.3835 3.3990 0.8059 1.9212 2.4492 5.1739 -3.1378 -1.4483 4.4566 -1.8152 -1.6188 4.1856 -4.2517 -1.1769 3.5914 -1.5196 -0.4097 3.2711 -3.9118 -0.0179 0.7456 -0.7595 -1.3340 1.3016 -0.0369 0.9411 -2.5686 0.7698 -2.4635 -3.4254 1.5226 1.6813 -3.3306 -0.7924 2.3856 -1.5769 -0.2133 -2.0604 -2.2489 2.0765 -2.4978 -2.0825 1.6092 1.6880 -1.8821 -0.6920 2.3923 0.0163 1.5895 -1.7723 0.7099 -1.1155 0.1348 2.6572 -2.6101 -0.1861 -0.5175 3.9441 -2.1479 -4.0729 0.2794 2.0593 1.4528 -2.3912 0.4748 -0.3373 0.1822 -1.7185 -0.9068 2.5018 -2.1276 -1.2742 0.4701 2.0801 0.4379 0.5200 2.3071
-4.2921 3.6708 0.9499 0.9184 3.9538 0.6072 -0.6623 5.0022 -0.7573 0.0573 -3.9665 0.0269 -1.4563 -2.1084 2.1038 -0.0877 -0.6496 3.5985 4.0613 -3.4094 -2.1977 3.9190 -4.6857 -1.3938 4.1100 -2.1835 -1.3029 2.6919 -4.6708 -0.5008 3.2966 -2.3282 -0.0266 1.0921 -0.8223 -1.2162 0.6903 -1.0222 1.2053 -1.3830 1.4846 -2.9765 -2.2682 2.7792 2.1225 -3.5244 1.3292 0.6427 -0.6207 0.2988 -2.6292 -1.1867 2.6341 -2.3065 -1.4117 1.7840 2.4164 -2.6042 0.2544 0.9737 0.5367 1.6038 -0.9473 0.4408 -1.6290 -0.1155 2.2568 -3.3254 -0.1871 0.0254 3.9363 -0.4488 -3.3654 2.5414 1.2025 0.9032 -3.0725 -0.0689 0.2810 0.3486 -1.6324 -0.1841 2.6971 -1.2547 -1.5874 0.4683 1.8312 -0.6464 -0.9131 2.2815
-4.1762 2.7563 2.7147 -1.4794 3.4655 -3.6914 0.5132 2.3913 -4.2979 2.6654 -2.9713 0.3141 -0.6946 -2.8151 2.3521 0.3879 -1.6774 4.2960 1.3158 -2.8688 -4.2067 1.9230 -3.9273 -3.3056 1.2905 -1.5293 -3.5019 1.2466 -3.9896 -1.9448 0.5082 -1.6557 -2.2121 1.9336 0.0792 0.0726 1.2987 -1.2679 1.9630 0.1285 3.4258 0.3406 -1.9137 1.9345 3.4074 -3.3486 0.5093 2.0728 0.8437 2.2171 0.7092 -0.2241 3.6368 -0.9405 -0.9663 0.9804 3.4567 -2.3221 -0.5152 2.1277 0.6913 1.4863 -1.5922 1.1142 -1.1234 0.5036 1.0879 -2.6729 -1.3596 -0.2986 2.8232 -3.3718 -3.1542 1.6832 2.6972 1.7172 -2.3502 -0.1634 1.0918 1.2697 -0.2129 0.0715 2.6270 -1.9423 -1.1749 -0.2951 2.7973 -0.0765 -1.6266 2.9182
-4.6782 2.2896 0.5152 -2.4927 3.3305 -2.7140 -1.7116 1.2666 -3.4909 2.8913 -2.7153 1.3046 -0.4533 -1.9711 3.0938 0.3058 0.1297 4.2081 2.6656 -2.9685 -2.9570 1.1564 -2.8469 -2.9180 3.1748 -4.0817 -2.0614 0.6170 -2.6626 -1.5101 2.2725 -4.3615 -0.8727 2.0526 -0.0626 -0.2471 1.3947 -0.5745 2.0303 1.0225 3.6005 -0.2779 -2.5452 2.3499 1.8258 -3.2735 0.2689 0.8214 1.7157 2.3691 0.0491 -0.0035 3.5835 -1.1466 -1.4733 1.7439 2.3679 -2.1181 -0.3802 1.4137 0.1888 1.1786 -1.4099 1.2892 -1.0381 0.6300 1.5073 -3.1911 -0.4933 -1.5884 2.2851 -2.6842 -3.4886 1.5776 1.0387 1.9878 -2.3840 0.5363 1.3143 1.2038 -0.4902 -0.4422 2.3245 -1.7279 -1.2619 0.3208 2.1818 -0.0260 -0.5845 2.9846
-4.5900 1.7742 2.2060 -0.3736 1.5217 -4.5310 -0.7912 3.8053 -4.2471 2.6158 -2.7205 0.5489 0.2764 -2.7011 2.9971 1.0028 -0.8537 4.5168 1.2576 -2.6217 -3.7810 0.7510 -1.3955 -3.0498 2.0811 -3.4958 -2.8556 0.0231 -1.7666 -1.7687 1.2842 -3.8427 -1.6100 1.9718 0.3031 -0.1056 1.5749 -0.7104 2.0420 0.0367 3.5953 -0.0988 -3.0039 -0.0616 1.5961 -2.5850 1.2719 3.5767 0.8121 2.4578 0.3633 -0.3559 3.6697 -1.3834 -1.8865 -0.7783 1.8095 -1.3703 0.5071 3.7921 0.7582 1.5795 -1.8905 1.1843 -0.7794 0.6132 0.8405 -2.6347 -0.9404 -0.3972 2.6637 -3.7509 -3.3613 1.0052 2.5124 1.6453 -2.1253 0.0791 1.1324 1.4685 -0.4909 0.0194 2.6195 -2.3168 -1.0277 -0.4753 2.9378 0.4750 -1.2798 3.2297
-4.6798 -1.5215 0.0571 -1.3800 2.0658 -5.1306 0.8389 1.3907 -4.8290 3.0708 -0.9726 1.9769 0.4893 -1.0667 4.2091 -0.5299 1.2036 4.4339 2.7494 -2.8933 -2.4530 3.6818 -3.0063 -1.2634 1.8783 -1.6589 -2.3333 2.9009 -2.9884 0.0370 1.1240 -1.6470 -1.0164 1.5985 1.3069 0.2243 1.0534 0.7369 2.5003 -1.4438 3.2538 -1.0097 -2.4759 -2.0208 1.1233 -3.6356 0.0329 1.6869 -0.4491 2.6809 -0.1217 -1.3947 3.0027 -2.3299 -1.4583 -1.7012 1.9403 -2.5178 0.3923 2.5425 0.5520 1.5861 -2.0360 1.1291 0.1833 1.1288 2.0369 -1.8276 0.0964 -0.2770 1.8446 -4.3266 -3.6035 -1.1175 0.9921 2.1815 -0.9114 1.1276 0.4985 1.8594 -0.6096 -0.3543 2.1383 -2.8640 -1.4710 -0.4448 2.6639 -0.1126 0.0998 3.5825
-4.6355 -0.3761 -0.5990 -3.2192 2.4606 -3.0200 -2.4213 0.2620 -3.0959 3.2956 -1.3014 1.9659 0.1813 -0.1136 3.9764 0.0025 2.2752 3.2673 2.8564 -4.0934 -1.6698 1.9425 -2.8900 -1.8026 3.7075 -3.9814 -0.4193 1.1098 -2.7004 -0.5469 2.8300 -3.7906 0.8051 1.9997 0.3811 -0.4177 1.4779 0.6939 1.9408 0.7009 3.6833 -1.7800 -2.6717 -1.1411 0.7472 -3.2510 1.2127 0.7097 1.5319 2.6984 -1.1150 -0.4760 3.3171 -2.3166 -1.6322 -0.8987 1.5645 -2.1046 1.4741 1.5608 -0.1556 1.0243 -1.5863 1.4341 -0.2763 0.8256 1.9548 -2.6467 0.6340 -2.2330 1.5177 -2.7948 -3.5119 -0.0431 0.3078 2.3397 -1.4331 1.2013 1.1198 1.4220 -1.0111 -0.9240 1.9376 -2.2105 -1.3220 0.4589 1.9718 0.0735 0.8668 2.9075
-4.3519 1.6269 -0.2461 -2.0244 2.9009 -3.4912 -0.9840 0.8206 -3.7274 2.5536 -2.6919 1.4679 -0.3722 -1.9863 3.6957 0.0667 0.3501 4.4713 2.1949 -3.0003 -3.2022 1.5787 -1.7052 -2.7089 2.8553 -3.7688 -2.0728 0.6525 -1.9510 -1.5325 1.8888 -3.9710 -0.9215 2.0767 0.2674 0.2981 1.3024 -0.5316 2.4344 0.8441 3.8006 -0.4099 -2.8951 -0.2793 0.4720 -2.8827 1.7872 1.7407 1.5093 2.6792 0.2308 0.0348 3.5924 -1.4644 -1.9850 -0.8224 1.2997 -1.8671 1.2142 2.6017 0.3996 1.2003 -1.3276 1.1985 -0.7645 0.9772 1.3344 -2.7028 -0.4972 -1.0937 1.9588 -3.0975 -3.3590 1.0762 0.7049 1.7797 -2.1343 0.6895 1.2981 1.4263 -0.2105 -0.1945 2.2384 -1.9406 -1.4318 -0.0409 2.3892 -0.1266 -0.5891 3.3769

>  <OB_ATOM_TYPES> (1pphA1)
C.3 N.pl3 N.pl3 O.2 O.2 O.2 C.3 C.3 C.3 C.3 C.3 C.3 N.3 C.ar C.ar C.ar C.ar C.ar C.ar C.ar C.ar C.3 N.am C.2 C.ar C.2 C.ar C.ar C.ar S.O2

>  <ENSEMBLE_RMSD> (1pphA1)
1.402 1.507 1.622 1.698 1.858 1.972 1.976 1.992 2.085 2.095 2.151 2.206 2.289 2.398 2.545 2.561 2.679 2.713 2.714 2.822 2.839 2.851 2.866 2.870 2.907 2.931 2.961 3.118 3.119 3.129 3.150 3.179 3.194 3.220 3.260 3.265 3.281 3.282 3.329 3.338 3.347 3.439 3.477 3.518 3.601 3.717 3.719 3.732 3.762 3.843

$$$$
