
 OpenBabel03071213D

 21 23  0  0  0  0  0  0  0  0999 V2000
   20.8820   28.9100   44.5720 C   0  0  0  0  0
   27.1890   33.7010   40.5090 C   0  0  0  0  0
   27.1830   33.2930   38.1110 C   0  0  0  0  0
   28.8370   32.1700   39.5350 C   0  0  0  0  0
   23.7760   27.7240   38.9450 N   0  0  0  0  0
   26.4660   28.9640   36.8630 C   0  0  0  0  0
   22.8520   28.3310   43.1240 C   0  0  0  0  0
   21.8270   30.5270   42.8570 C   0  0  0  0  0
   23.7840   28.6450   42.1270 C   0  0  0  0  0
   22.7690   30.8460   41.8470 C   0  0  0  0  0
   25.4280   28.1830   37.3360 N   0  0  0  0  0
   26.8600   30.0840   37.5840 N   0  0  0  0  0
   25.5200   31.3110   40.6990 N   0  0  0  0  0
   26.4280   31.4610   39.6680 N   0  0  0  0  0
   21.8750   29.2650   43.4940 C   0  0  0  0  0
   24.7890   28.5060   38.5210 C   0  0  0  0  0
   23.7500   29.8980   41.4850 C   0  0  0  0  0
   26.2270   30.4170   38.7760 C   0  0  0  0  0
   24.7540   30.1870   40.4540 C   0  0  0  0  0
   25.1860   29.6320   39.2570 C   0  0  0  0  0
   27.3650   32.5990   39.4610 C   0  0  0  0  0
  1 15  1  0  0  0
  2 21  1  0  0  0
  3 21  1  0  0  0
  4 21  1  0  0  0
  5 16  1  0  0  0
  6 11  2  0  0  0
  6 12  1  0  0  0
  7  9  2  0  0  0
  7 15  1  0  0  0
  8 10  1  0  0  0
  8 15  2  0  0  0
  9 17  1  0  0  0
 10 17  2  0  0  0
 11 16  1  0  0  0
 12 18  2  0  0  0
 13 14  1  0  0  0
 13 19  2  0  0  0
 14 18  1  0  0  0
 14 21  1  0  0  0
 16 20  2  0  0  0
 17 19  1  0  0  0
 18 20  1  0  0  0
 19 20  1  0  0  0
M  END
>  <MOLID> (1qcfA1)
1qcfA1

>  <SMILES_CANONICAL> (1qcfA1)
Cc1ccc(cc1)c1nn(c2c1c(N)ncn2)C(C)(C)C	

>  <FINGERPRINT> (1qcfA1)
0000000000000000001000000000011000000000000000000000100000001000111000000000000000000001000000000000100000001101000001100000000000000001000010000000000000000000000000000000000011100000000001100000000001000000100000100000000000000000000000000000100000000000000000000000000000000001000000000000000100000000000010001100000000000000000000001000000000001100011000000000000110010000000000000000000000000000000100000001010100000000100000000000000000000000000000000000000000000000100000000001000000001100001000000100110000000000001000101000000000000000000000101000000000000000000000000000010001000000000000000000000000010000001000100000000000000000100000000000000000000000000000000001110000000011000000000100000000110001100000000000100001000011000000100101000001000000000111000000000000000100001010000000000110000000000010000000001000000000000101000000011100000010000000000000000000000000000010000110000000000001000000000100000100001100000000000100011000010000000000001100000000000000000000101000000000000000000000000000000011100000

>  <MACCS166> (1qcfA1)
000000000000000000001000010000000000010000001000010100000000010011000000011111110011000000000101011000001000000100000011110110000110101010001100100110100001010110101000

>  <OB_MW> (1qcfA1)
281.164

>  <OB_logP> (1qcfA1)
3.7201

>  <OB_PSA> (1qcfA1)
69.62

>  <OB_MR> (1qcfA1)
85.6954

>  <OB_ATOMIC_CHARGES> (1qcfA1)
0.0310266677 0.0244740925 0.0244740925 0.0244740925 -0.1069902646 0.2015257682 -0.004206803 -0.004206803 0.0012325979 0.0012325979 -0.205546543 -0.2050185933 -0.1679940964 -0.2377008297 -0.0218483173 0.1758073575 0.0195127829 0.1653000184 0.1066504676 0.0896081079 0.0881936067

>  <MCT_HBD> (1qcfA1)
1

>  <MCT_HBA> (1qcfA1)
5

>  <ENSEMBLE_TOTAL> (1qcfA1)
2

>  <ENSEMBLE_COORDS> (1qcfA1)
-4.0583 -1.3116 4.3232 2.2487 3.4794 0.2602 2.2427 3.0714 -2.1378 3.8967 1.9484 -0.7138 -1.1643 -2.4976 -1.3038 1.5257 -1.2576 -3.3858 -2.0883 -1.8906 2.8752 -3.1133 0.3054 2.6082 -1.1563 -1.5766 1.8782 -2.1713 0.6244 1.5982 0.4877 -2.0386 -2.9128 1.9197 -0.1376 -2.6648 0.5797 1.0894 0.4502 1.4877 1.2394 -0.5808 -3.0653 -0.9566 3.2452 -0.1513 -1.7156 -1.7278 -1.1903 -0.3236 1.2362 1.2867 0.1954 -1.4728 -0.1863 -0.0346 0.2052 0.2457 -0.5896 -0.9918 2.4247 2.3774 -0.7878
-4.1609 -1.2794 4.0671 3.7146 2.0161 -0.6330 1.9565 3.5870 0.0443 2.1835 2.9776 -2.3128 -0.9481 -2.6571 -0.9042 1.7005 -1.4558 -3.0053 -3.4845 -0.1400 1.9434 -1.8362 -1.3940 3.2124 -2.5670 0.1892 1.0152 -0.8376 -1.0241 2.2243 0.7811 -2.2522 -2.5499 2.0416 -0.2157 -2.5177 0.4929 1.3095 0.3408 1.3988 1.3224 -0.7238 -3.1024 -0.9605 3.0802 0.0497 -1.8516 -1.4388 -1.2058 -0.2908 1.1594 1.3643 0.1657 -1.4901 -0.1460 0.1661 0.2621 0.3131 -0.6644 -0.8748 2.2918 2.4519 -0.8988

>  <OB_ATOM_TYPES> (1qcfA1)
C.3 C.3 C.3 C.3 N.pl3 C.ar C.ar C.ar C.ar C.ar N.ar N.ar N.ar N.ar C.ar C.ar C.ar C.ar C.ar C.ar C.3

>  <ENSEMBLE_RMSD> (1qcfA1)
0.000 1.371

$$$$
