
 OpenBabel03071213D

 12 12  0  0  0  0  0  0  0  0999 V2000
  -17.2890   39.8380   20.0870 O   0  0  0  0  0
  -15.0980   40.6290   16.4840 O   0  0  0  0  0
  -18.1020   40.6000   18.1690 O   0  0  0  0  0
  -16.1490   42.4130   15.7990 O   0  0  0  0  0
  -15.1510   43.5060   20.5570 C   0  0  0  0  0
  -14.4630   43.9250   19.4260 C   0  0  0  0  0
  -16.0480   42.4350   20.4340 C   0  0  0  0  0
  -14.6620   43.3280   18.2620 N   0  0  0  0  0
  -17.2800   40.6930   19.1530 C   0  0  0  0  0
  -15.6010   41.7780   16.7130 C   0  0  0  0  0
  -16.2580   41.8330   19.1850 C   0  0  0  0  0
  -15.5100   42.3230   18.0870 C   0  0  0  0  0
  1  9  1  0  0  0
  2 10  1  0  0  0
  3  9  2  0  0  0
  4 10  2  0  0  0
  5  6  2  0  0  0
  5  7  1  0  0  0
  6  8  1  0  0  0
  7 11  2  0  0  0
  8 12  2  0  0  0
  9 11  1  0  0  0
 10 12  1  0  0  0
 11 12  1  0  0  0
M  END
>  <MOLID> (1qpqA1)
1qpqA1

>  <SMILES_CANONICAL> (1qpqA1)
OC(=O)c1ncccc1C(=O)O	

>  <FINGERPRINT> (1qpqA1)
0000000000000000000000000000001000000000100000000000100000000000000000000000000001000001000000000001000000000000000000100001000000000000000001000001000000100000000000000000000011000000000000000000000000000000000000000000000000000000000000000000000000000000000000000000000000000011000000000000000000000000000000000100000000000000000010000000000000000100010000000000000000001000000000000000000000000000100010000000000000000000001100000000000000000000000000000000001000000000000000000000001000001100000000000000110000000000000000001000000000000000000000101000000000000000000001000000000000110000000000000000000000000000000000000000000000000000110000000000000000000000000000000000100000000110100010110110000000100000100000000010000000000010000000000100000000000000000011000000000000000100000000000000000010000000000000000000100000000000000010000000000000000000010000000000000000000000000000000000000000000000010000000000000000000100000000000000001000000000000000011100000000000000000000000000000000000000000000000000000000000000

>  <MACCS166> (1qpqA1)
000000000000000000000000000000000000000000001000010000000000000010000000000101000000000000000010111000000000000000000011101000000010000110110101010001000101111010111000

>  <OB_MW> (1qpqA1)
167.022

>  <OB_logP> (1qpqA1)
0.478

>  <OB_PSA> (1qpqA1)
87.49

>  <OB_MR> (1qpqA1)
38.1556

>  <OB_ATOMIC_CHARGES> (1qpqA1)
-0.2404939074 -0.238846788 -0.2404939074 -0.238846788 0.020896869 0.0990805135 0.0099143255 -0.2369748439 0.3894273144 0.4052950545 0.1039146736 0.1671274842

>  <MCT_HBD> (1qpqA1)
2

>  <MCT_HBA> (1qpqA1)
5

>  <ENSEMBLE_TOTAL> (1qpqA1)
2

>  <ENSEMBLE_COORDS> (1qpqA1)
-1.3214 -2.1037 1.5573 0.8696 -1.3127 -2.0457 -2.1344 -1.3417 -0.3607 -0.1814 0.4713 -2.7307 0.8166 1.5643 2.0273 1.5046 1.9833 0.8963 -0.0804 0.4933 1.9043 1.3056 1.3863 -0.2677 -1.3124 -1.2488 0.6233 0.3666 -0.1637 -1.8167 -0.2904 -0.1087 0.6553 0.4576 0.3813 -0.4427
-2.4068 -0.7809 0.0108 1.2470 -0.9560 -2.1325 -1.0951 -2.3817 0.9854 -0.7117 0.2006 -2.4636 0.9143 1.4292 2.0339 1.5742 1.8496 0.9438 -0.0682 0.3806 1.8921 1.3787 1.3665 -0.3290 -1.2786 -1.2407 0.5959 0.2486 -0.1275 -1.7976 -0.3012 -0.1564 0.6874 0.4988 0.4167 -0.4267

>  <OB_ATOM_TYPES> (1qpqA1)
O.co2 O.co2 O.co2 O.co2 C.ar C.ar C.ar N.ar C.2 C.2 C.ar C.ar

>  <ENSEMBLE_RMSD> (1qpqA1)
0.000 0.917

$$$$
