
 OpenBabel03071213D

 20 22  0  0  0  0  0  0  0  0999 V2000
   27.4080   38.9830   34.2750 N   0  0  0  0  0
   32.4740   38.0560   33.7270 O   0  0  0  0  0
   31.7590   40.4690   30.0510 O   0  0  0  0  0
   30.8090   38.6870   28.2120 F   0  0  0  0  0
   24.9700   35.7740   32.4060 O   0  0  0  0  0
   31.6830   38.8440   32.8670 C   0  0  0  0  0
   26.2750   37.3200   33.1970 N   0  0  0  0  0
   31.0400   37.1970   31.2930 O   0  0  0  0  0
   28.4140   35.5980   29.6550 C   0  0  0  0  0
   27.2160   35.3370   30.2490 N   0  0  0  0  0
   28.3550   37.9390   32.3720 N   0  0  0  0  0
   30.8730   39.4140   30.6010 C   0  0  0  0  0
   30.2660   38.6090   29.4890 C   0  0  0  0  0
   31.7180   38.4120   31.3930 C   0  0  0  0  0
   30.3610   37.1920   30.0440 C   0  0  0  0  0
   29.0210   36.6130   30.3500 N   0  0  0  0  0
   27.3830   38.1060   33.2760 C   0  0  0  0  0
   26.0580   36.3160   32.2700 C   0  0  0  0  0
   28.2170   36.9880   31.3990 C   0  0  0  0  0
   27.0790   36.1740   31.3000 C   0  0  0  0  0
  1 17  1  0  0  0
  2  6  1  0  0  0
  3 12  1  0  0  0
  4 13  1  0  0  0
  5 18  2  0  0  0
  6 14  1  0  0  0
  7 17  1  0  0  0
  7 18  1  0  0  0
  8 14  1  0  0  0
  8 15  1  0  0  0
  9 10  2  0  0  0
  9 16  1  0  0  0
 10 20  1  0  0  0
 11 17  2  0  0  0
 11 19  1  0  0  0
 12 13  1  0  0  0
 12 14  1  0  0  0
 13 15  1  0  0  0
 15 16  1  0  0  0
 16 19  1  0  0  0
 18 20  1  0  0  0
 19 20  2  0  0  0
M  END
>  <MOLID> (1rdsA1)
1rdsA1

>  <SMILES_CANONICAL> (1rdsA1)
OC[C@H]1O[C@H]([C@@H]([C@@H]1O)F)n1cnc2c1nc(N)[nH]c2=O	

>  <FINGERPRINT> (1rdsA1)
0000000000000000000000000000101000000001110000000001100000000000000010000001100000000000000000001000000000000001000001100000000000000000000110000000000001100000000000000000000011000001010000000000000000000000101111000001011000000000000000000000100000000000000001100100000000000001000000001000000110000000000000001111000000001100000000001000000000001100010000000000000110010000000000000000000000000000100100000000000000000011110010000000000100000000000000000000100000010000100000000001000000011100100000000000110000000000001000000000000000100000000000000000000010000000000000000001100111000000000000000000000000000000001000000001000000000001100000000000100000000001101000000001110000000000000000000101000000100101100000000000100001000000000010000111000000001000000101000001000000000000000001000000000011000000001000000000000000000010011000000000000000000010101000000001000000000100000000000110000000100000000000000100001000001000000010000100011000010000000000001100000000101000000000000000000010000000000000000000011010000000

>  <MACCS166> (1rdsA1)
000000000000000000001000110000000000010001101000000010001000010010000001001111110111101011010011111000001110110010001011110010100011111111110110010101111111111010111000

>  <OB_MW> (1rdsA1)
285.087

>  <OB_logP> (1rdsA1)
-1.1283

>  <OB_PSA> (1rdsA1)
139.28

>  <OB_MR> (1rdsA1)
64.3887

>  <OB_ATOMIC_CHARGES> (1rdsA1)
-0.0859088456 -0.2176083447 -0.217318929 -0.2296322882 -0.2633345886 0.2141973252 -0.1709449835 -0.3303642956 0.1816578055 -0.2173101653 -0.1918211255 0.2183436491 0.2426324308 0.1832642003 0.2431965552 -0.2690941425 0.2606207393 0.302346262 0.1723101188 0.174768622

>  <MCT_HBD> (1rdsA1)
4

>  <MCT_HBA> (1rdsA1)
9

>  <ENSEMBLE_TOTAL> (1rdsA1)
2

>  <ENSEMBLE_COORDS> (1rdsA1)
-1.6610 1.3816 2.8537 3.4050 0.4546 2.3057 2.6901 2.8676 -1.3703 1.7401 1.0856 -3.2093 -4.0990 -1.8274 0.9847 2.6140 1.2426 1.4457 -2.7940 -0.2814 1.7757 1.9710 -0.4044 -0.1283 -0.6549 -2.0034 -1.7663 -1.8529 -2.2644 -1.1723 -0.7139 0.3376 0.9507 1.8041 1.8126 -0.8203 1.1970 1.0076 -1.9323 2.6490 0.8106 -0.0283 1.2920 -0.4094 -1.3773 -0.0480 -0.9884 -1.0713 -1.6860 0.5046 1.8547 -3.0109 -1.2854 0.8487 -0.8520 -0.6134 -0.0223 -1.9899 -1.4274 -0.1213
-2.1610 -0.4016 3.7743 3.4512 3.2110 -2.3266 4.4358 0.5744 0.0022 2.3213 -1.5958 0.0931 -4.4160 -1.9088 -0.0256 2.9619 3.1840 -0.9943 -3.2569 -1.1570 1.8440 1.1796 1.5600 -0.9123 -0.8895 -0.7009 -1.8670 -2.1049 -1.1767 -1.6470 -1.0863 -0.2306 1.6835 3.1316 0.6670 -0.2960 2.1706 -0.3479 -0.2398 2.5089 1.8108 -0.7276 0.9799 0.2422 -0.6060 -0.2709 -0.2457 -0.7086 -2.1191 -0.5792 2.4074 -3.4224 -1.4163 0.4936 -1.1732 -0.4691 0.3333 -2.2408 -1.0200 -0.2808

>  <OB_ATOM_TYPES> (1rdsA1)
N.pl3 O.3 O.3 F O.2 C.3 N.ar O.3 C.ar N.ar N.ar C.3 C.3 C.3 C.3 N.ar C.ar C.ar C.ar C.ar

>  <ENSEMBLE_RMSD> (1rdsA1)
0.000 2.215

$$$$
