
 OpenBabel03071213D

 26 27  0  0  0  0  0  0  0  0999 V2000
   -0.0900   13.2110   19.5790 C   0  0  0  0  0
   -0.7660   21.8140   18.9710 O   0  0  0  0  0
   -3.5610   15.3380   22.8610 O   0  0  0  0  0
   -1.0220   23.6790   24.6270 O   0  0  0  0  0
    0.4560   22.9680   22.8070 O   0  0  0  0  0
   -2.7320   21.3660   24.8910 O   0  0  0  0  0
   -0.2630   17.8360   21.3780 O   0  0  0  0  0
   -5.0720   19.9560   21.4380 O   0  0  0  0  0
   -1.9130   14.4580   18.6880 O   0  0  0  0  0
   -0.1460   22.3660   20.1290 C   0  0  0  0  0
   -1.2020   15.0340   20.7750 N   0  0  0  0  0
   -4.3840   16.9190   21.5180 O   0  0  0  0  0
   -1.0670   21.0910   21.7820 O   0  0  0  0  0
   -2.0490   19.4320   23.0090 O   0  0  0  0  0
   -5.0620   18.9740   22.4870 C   0  0  0  0  0
   -3.5620   15.7520   21.4910 C   0  0  0  0  0
   -1.7280   23.1220   23.5280 C   0  0  0  0  0
   -0.8320   23.3590   22.3440 C   0  0  0  0  0
   -1.8310   21.6330   23.8420 C   0  0  0  0  0
   -1.5000   17.3220   21.9010 C   0  0  0  0  0
   -1.1590   22.3980   21.2290 C   0  0  0  0  0
   -2.1580   20.7950   22.6350 C   0  0  0  0  0
   -2.1210   16.1540   21.0420 C   0  0  0  0  0
   -3.9340   17.9390   22.4440 C   0  0  0  0  0
   -2.5150   18.4640   22.0460 C   0  0  0  0  0
   -1.1530   14.2910   19.6500 C   0  0  0  0  0
  1 26  1  0  0  0
  2 10  1  0  0  0
  3 16  1  0  0  0
  4 17  1  0  0  0
  5 18  1  0  0  0
  6 19  1  0  0  0
  7 20  1  0  0  0
  8 15  2  0  0  0
  9 26  2  0  0  0
 10 21  1  0  0  0
 11 23  1  0  0  0
 11 26  1  0  0  0
 12 16  1  0  0  0
 12 24  1  0  0  0
 13 21  1  0  0  0
 13 22  1  0  0  0
 14 22  1  0  0  0
 14 25  1  0  0  0
 15 24  1  0  0  0
 16 23  1  0  0  0
 17 18  1  0  0  0
 17 19  1  0  0  0
 18 21  1  0  0  0
 19 22  1  0  0  0
 20 23  1  0  0  0
 20 25  1  0  0  0
 24 25  1  0  0  0
M  END
>  <MOLID> (1sltA1)
1sltA1

>  <SMILES_CANONICAL> (1sltA1)
O=C[C@H]1O[C@H](O)[C@@H]([C@H]([C@@H]1O[C@@H]1O[C@H](CO)[C@@H]([C@@H]([C@H]1O)O)O)O)NC(=O)C	

>  <FINGERPRINT> (1sltA1)
0000000000000101000000000100000000000001000000000101000000000000000000000001000000000001000000001000000010000001000001010000000010000000001111000000000011000000000000000010000000000000000000000000000000000000001010000000000000101000000000000000000001000000000000000010000000100000000000000000000100000000000000001010000000000000001000000000000000000000010000000000000111010000000000000001010000000000100000000001101000000010100010000000000000000000000000000000000000010000000010000001100000101011100100000000100000010000101000000000000000000000100000000000000000000000000000000001000111000000101000000000000000000000000000000000001000000001000000000001000000000000001000000001000000010100000001100000000000010111000000000000000010000000000010000001000000000000000111000001000000000000000001000000000100000000000000000000000000000000000000001000000000000010000000000011010000000000000000000010000100000000000000000000001000000000000000000000010000000000000000010000000011100000000000000000000000000000000000000000101000000000

>  <MACCS166> (1sltA1)
000000000000000000000000000000000000000000000000000011001000000000000001000000000100000011110010110000000001110000001001001001100011100111111110110011111111111110111000

>  <OB_MW> (1sltA1)
381.127

>  <OB_logP> (1sltA1)
-4.6559

>  <OB_PSA> (1sltA1)
195.24

>  <OB_MR> (1sltA1)
78.6115

>  <OB_ATOMIC_CHARGES> (1sltA1)
0.0964264805 -0.2176082102 -0.1878657347 -0.2173919746 -0.2176051559 -0.2148633368 -0.2183897005 -0.285538399 -0.273326908 0.2142063469 -0.1991416154 -0.318989865 -0.3256182474 -0.3253705403 0.2393128043 0.2920543345 0.2198268046 0.2144172081 0.2405585668 0.2067158397 0.1834834369 0.2695454193 0.1869965464 0.2115473336 0.1845685652 0.242050001

>  <MCT_HBD> (1sltA1)
7

>  <MCT_HBA> (1sltA1)
12

>  <ENSEMBLE_TOTAL> (1sltA1)
50

>  <ENSEMBLE_COORDS> (1sltA1)
1.8856 -5.8533 -2.2322 1.2096 2.7497 -2.8402 -1.5854 -3.7263 1.0498 0.9536 4.6147 2.8158 2.4316 3.9037 0.9958 -0.7564 2.3017 3.0798 1.7126 -1.2283 -0.4332 -3.0964 0.8917 -0.3732 0.0626 -4.6063 -3.1232 1.8296 3.3017 -1.6822 0.7736 -4.0303 -1.0362 -2.4084 -2.1453 -0.2932 0.9086 2.0267 -0.0292 -0.0734 0.3677 1.1978 -3.0864 -0.0903 0.6758 -1.5864 -3.3123 -0.3202 0.2476 4.0577 1.7168 1.1436 4.2947 0.5328 0.1446 2.5687 2.0308 0.4756 -1.7423 0.0898 0.8166 3.3337 -0.5822 -0.1824 1.7307 0.8238 -0.1454 -2.9103 -0.7692 -1.9584 -1.1253 0.6328 -0.5394 -0.6003 0.2348 0.8226 -4.7733 -2.1612
1.7904 -5.7544 -1.7560 1.0076 4.1056 -2.7098 -2.1215 -3.9644 0.6215 1.5816 4.3156 2.7119 1.3357 5.1672 -0.0027 -0.0772 2.0626 3.3135 1.4767 -1.6624 -0.0728 -3.1419 0.8572 -0.4731 1.7089 -3.5338 -2.6331 1.4398 2.9720 -1.9755 0.2686 -4.1568 -0.9124 -2.6372 -1.9229 -0.4478 0.7486 1.5685 -0.2032 -0.1575 0.0577 1.4085 -3.0046 0.1446 0.5099 -1.9286 -3.1557 -0.5301 0.7875 3.6444 1.7474 1.4193 3.8052 0.3830 0.6715 2.1816 2.1151 0.1389 -1.9994 0.2561 0.7199 2.9272 -0.6436 -0.0154 1.4162 0.9948 -0.4515 -2.9103 -0.8021 -2.1423 -1.0809 0.5950 -0.6832 -0.7273 0.3464 1.2659 -4.3572 -1.8406
1.7755 -4.8798 -2.8162 1.7426 2.8681 -2.7747 -1.4981 -4.3522 0.5092 0.6386 4.9059 2.4756 1.0829 5.0691 -0.3781 -0.7609 2.4915 3.1680 1.7353 -1.5132 0.2725 -3.6452 0.2556 -0.6039 -0.4812 -4.1439 -3.0842 2.3016 2.6243 -1.4946 0.6430 -3.7177 -1.0923 -2.3812 -2.2110 0.5245 1.2834 1.5080 0.3262 -0.0334 0.1722 1.7637 -2.4782 -0.0877 -0.4831 -1.5937 -3.1325 -0.2200 0.3239 3.8793 1.5513 1.3178 3.9102 0.4066 0.3222 2.5343 2.2543 0.4053 -1.9080 0.5716 1.1900 2.6793 -0.4738 0.1575 1.4590 1.1987 -0.1972 -2.6568 -0.5935 -1.9302 -0.8806 0.6640 -0.4376 -0.6698 0.7039 0.5173 -4.2035 -2.3755
1.7060 -6.0098 -1.4664 0.7488 4.0573 -2.7489 -2.2347 -3.7833 0.5009 1.3345 4.3680 2.8104 1.1484 5.2784 0.0974 -0.1727 1.9632 3.2483 1.5886 -1.8428 -0.1702 -3.3486 0.9904 0.8387 1.6561 -3.9344 -2.6519 1.5084 3.1902 -1.9224 0.1948 -4.2906 -0.8785 -2.4962 -1.7757 -0.7161 0.9198 1.6514 -0.2152 0.0264 0.0207 1.2668 -2.7030 0.3465 0.0251 -1.9105 -3.0730 -0.6854 0.6546 3.6627 1.7855 1.3406 3.9208 0.4615 0.6416 2.1826 2.1082 0.2223 -2.0625 0.1450 0.7724 3.0116 -0.6152 0.0975 1.4002 0.9237 -0.4070 -2.9789 -0.8847 -1.9935 -0.9345 0.3278 -0.4942 -0.7253 0.1701 1.1996 -4.6332 -1.7545
1.2747 -6.1849 -2.2159 1.4642 5.2098 -2.0999 -1.2330 -3.7099 1.2993 0.3935 4.2288 3.1391 1.2068 5.6039 0.8039 -0.9602 1.7576 2.5972 1.7935 -1.7202 -0.9545 -2.7568 0.5325 -0.9676 -1.0293 -5.5788 -2.0936 2.0138 4.0549 -1.4842 0.5518 -4.3385 -0.9165 -2.2342 -2.0909 -0.1035 1.2412 2.1299 -0.3064 0.5333 0.1671 0.7827 -2.5003 0.1428 0.1630 -1.4702 -3.2847 -0.0337 0.1691 3.7167 1.8343 1.2634 4.1925 0.9083 0.1844 2.2078 1.8917 0.6321 -1.9822 -0.1844 1.0424 3.5381 -0.4457 0.2373 1.5404 0.5217 -0.1791 -3.0982 -0.8072 -1.5727 -0.9841 0.5120 -0.1914 -0.7041 -0.0833 0.1258 -5.3462 -1.7565
1.6704 -5.8440 -1.8582 0.7149 4.3901 -2.5266 -1.9745 -3.9378 -0.1682 1.4931 4.2030 2.9477 1.1485 5.3034 0.3218 -0.0540 1.8164 3.3219 1.6480 -1.4863 -0.5318 -3.0179 1.0007 -0.3234 0.7637 -4.9861 0.1760 1.3753 3.3346 -1.8474 0.4813 -3.8050 -1.8146 -2.4626 -1.7456 -0.8784 0.8189 1.7112 -0.2149 0.0019 -0.0054 1.2178 -2.8617 0.0898 0.4752 -1.7551 -2.9503 -1.1624 0.7287 3.5866 1.9245 1.3352 3.9208 0.5794 0.6973 2.0902 2.1505 0.3312 -1.8990 -0.2035 0.6865 3.0978 -0.5214 0.0642 1.3955 0.9562 -0.2763 -2.6642 -1.3598 -1.9633 -1.0978 0.2930 -0.5197 -0.6730 0.0771 0.9261 -4.8455 -1.0304
1.4520 -5.3897 -2.8613 3.5369 3.4399 -1.8385 -1.2657 -4.1047 0.6809 -0.5934 4.9945 1.5865 1.3895 5.2065 -0.4652 -1.6776 2.3865 1.8306 1.5430 -1.0701 -0.6697 -3.7526 -0.4967 2.1169 -0.8342 -4.7071 -2.9331 3.3507 3.0173 -0.4973 0.6263 -3.7024 -1.4213 -2.3835 -2.1265 0.0404 1.6918 1.7269 0.6034 0.0733 0.2179 1.4180 -2.8392 -0.3169 1.3245 -1.5307 -3.1870 -0.3684 -0.1416 3.8957 0.8148 1.3053 4.1060 0.4266 -0.2983 2.6114 1.6024 0.4486 -1.6906 -0.0145 1.8685 2.8618 -0.2421 0.3000 1.4740 0.7906 -0.2463 -2.6402 -0.9749 -1.7625 -1.3104 1.0374 -0.5380 -0.6271 0.4490 0.2779 -4.5692 -2.4355
1.4358 -5.4566 -2.6211 3.6189 2.9925 -1.0940 -1.5791 -4.0489 0.3471 0.3757 4.6064 2.5585 1.1784 5.3721 -0.0889 -0.9891 2.1013 2.6096 1.0982 -1.0778 -1.4497 -3.3674 -0.0465 2.2492 1.3016 -4.5343 -0.4250 2.3671 3.2476 -1.7123 -0.0262 -3.6667 -2.1337 -2.6851 -2.0241 -0.1492 1.2805 1.7224 -0.2200 0.0886 0.0901 0.9784 -2.8654 -0.1623 1.1411 -1.9445 -3.1261 -0.6669 0.1870 3.7955 1.4113 1.3007 4.0548 0.4216 0.1632 2.3375 1.8178 0.1343 -1.6950 -0.6107 1.2399 3.0542 -0.7193 0.1294 1.4560 0.5791 -0.7355 -2.6221 -1.4328 -1.9038 -1.2401 0.7564 -0.7154 -0.6173 0.0400 0.9120 -4.5128 -1.5866
2.7687 -3.3006 -0.1981 1.8393 3.8900 -2.7471 -1.7216 -4.1263 0.9517 1.5168 3.6047 2.9137 1.8807 4.8410 0.3445 -0.3357 1.4230 2.8105 0.0185 -0.9151 -2.1715 -4.0689 0.4106 0.2740 1.6195 -3.7088 -2.2526 2.3475 2.9299 -1.8359 0.4147 -3.1321 -0.3464 -2.9660 -2.2638 0.1628 1.2030 1.3569 -0.4902 -0.1084 -0.2647 0.5813 -3.3759 -0.1746 1.0929 -2.0571 -3.3115 -0.1536 0.9203 3.1361 1.7158 1.8365 3.4376 0.5493 0.6582 1.6479 1.8247 -1.0273 -1.4012 -1.3620 1.3465 2.7552 -0.7166 0.1845 1.1215 0.4798 -0.8552 -2.8598 -0.9817 -2.2982 -1.1691 0.7801 -1.2961 -0.5145 -0.1605 1.5559 -3.4125 -1.0650
0.8825 -5.5234 -2.8700 3.4160 3.8927 -1.8557 -1.5809 -4.1271 0.1928 -0.3824 4.8506 1.8524 1.3960 5.2273 -0.3302 -1.5110 2.2681 1.9961 1.0872 -0.9193 -1.3272 -3.2743 -0.7250 2.7551 1.2731 -4.6117 -0.6971 3.2703 2.9657 -0.7930 -0.0210 -3.4321 -2.2310 -2.6301 -2.0283 0.0151 1.6649 1.6376 0.3179 0.1034 0.1035 1.1843 -2.7314 -0.4725 1.6892 -1.9299 -3.0604 -0.6758 -0.0468 3.8192 0.9417 1.3617 4.0327 0.4343 -0.1600 2.4726 1.6235 0.1700 -1.6269 -0.5049 1.8077 2.8527 -0.4187 0.2933 1.4053 0.6398 -0.7160 -2.4872 -1.3878 -1.7911 -1.3932 0.9832 -0.6935 -0.6296 0.2610 0.7426 -4.4915 -1.7951
1.1418 -4.6890 -3.3788 3.6753 2.0746 -1.7722 -1.0314 -4.1884 0.5115 -0.3642 4.9212 1.6112 1.7406 5.0687 -0.3265 -1.7414 2.4205 1.5423 0.5067 -0.6346 -1.4689 -3.5453 0.0307 1.7789 1.6500 -3.8879 -1.1886 3.4271 2.6915 -0.5183 -0.3508 -3.2743 -2.2276 -2.5924 -2.4154 0.5829 1.6417 1.5214 0.5189 -0.0656 0.1313 1.3013 -2.7066 -0.7515 2.1938 -1.8272 -3.2885 -0.2444 0.0091 3.8381 0.7772 1.4891 3.9227 0.4710 -0.3291 2.5295 1.4635 -0.0911 -1.4797 -0.4970 1.9356 2.6727 -0.2681 0.2300 1.3656 0.6599 -0.9847 -2.4751 -1.2059 -1.7585 -1.5515 1.3508 -0.9242 -0.6378 0.4627 0.8657 -3.9147 -2.1296
2.4412 -4.6952 -1.8595 3.2170 3.5428 -1.6937 -0.1956 -2.5258 1.6658 1.6726 1.8533 2.8584 2.6523 4.0250 1.2624 -1.0915 1.3092 2.1776 0.2191 -0.5976 -2.2137 -4.1934 0.4857 1.0793 0.3035 -5.3002 -0.9841 1.9118 4.0780 -1.5704 1.0031 -3.0817 -0.8909 -2.2838 -2.2780 0.5796 0.4164 2.2756 -1.0219 -1.6189 1.1109 -0.7001 -3.7010 -0.4860 0.5249 -0.9793 -2.8405 0.5256 0.9528 2.4339 1.7849 1.9149 2.9359 0.7319 -0.0367 1.4262 1.2342 -0.1854 -0.9279 -0.8939 1.1246 3.3832 -0.4823 -0.5935 1.8807 -0.1051 -0.2838 -2.4378 -0.7646 -2.2526 -0.8539 0.5913 -1.5373 -0.2986 -0.6249 1.1235 -4.4173 -1.2110
2.0448 -4.8276 0.7659 0.1066 5.0758 -1.8196 -2.1995 -4.4380 -0.0997 2.7126 2.8938 2.6506 2.0432 4.8656 0.6832 0.6318 0.9204 2.9311 0.7524 -1.1056 -1.9516 -4.0136 0.9318 0.1773 2.1282 -4.0771 -1.5032 0.8605 3.8740 -1.7710 0.6220 -3.1124 -0.0246 -2.8124 -2.1750 -0.4220 0.4772 1.8369 -0.5975 -0.2167 -0.1557 0.5027 -3.5161 0.0225 -0.4704 -1.7917 -3.0858 -0.0364 1.5435 2.8426 1.8490 1.8281 3.4750 0.5054 1.1151 1.4010 1.6867 -0.5237 -1.4817 -1.4746 0.6464 3.2405 -0.4173 0.0353 1.2426 0.6250 -0.5320 -2.8772 -0.8629 -2.4387 -0.8792 0.0358 -1.1169 -0.4179 -0.5670 1.6136 -3.9895 -0.3945
0.3633 -5.2767 -2.3207 2.1649 4.6579 -2.1507 -0.0378 -1.9855 2.2705 1.4530 2.0108 3.0033 2.8468 3.7546 1.2247 -1.2900 1.6207 2.1832 0.5685 -0.6497 -1.8446 -4.2659 -1.0317 -0.4840 2.1583 -4.0158 -1.3752 2.3873 3.3700 -1.5979 -0.0338 -3.2659 -1.1387 -1.9789 -2.2726 0.9358 0.4843 2.0888 -0.9906 -1.5964 1.0288 -0.6504 -3.6444 -0.7282 0.5224 -0.6092 -2.6066 1.1298 0.8816 2.5248 1.8124 1.9681 2.7331 0.7823 -0.1696 1.5580 1.3135 0.0256 -0.8616 -0.5562 1.3371 3.1326 -0.5370 -0.6081 1.8938 -0.1038 0.2154 -2.2949 -0.1021 -2.1660 -0.8792 0.7239 -1.4071 -0.3730 -0.4892 0.9530 -4.1326 -1.5609
1.3125 -5.5241 -2.5963 3.9137 4.0329 -1.2853 -2.4933 -4.3481 -0.3267 -0.9364 4.8292 1.0016 1.4176 5.2788 -0.5131 -1.8387 2.1538 0.9260 1.0278 -1.2097 -1.1618 -2.8904 -0.4242 3.2468 0.3376 -3.4925 -3.3903 3.5050 3.2237 -0.1953 0.2396 -4.0148 -1.1250 -2.3965 -2.3044 0.7942 1.7697 1.7762 0.4840 0.2229 0.1895 1.2215 -2.5279 -0.4375 2.0800 -1.6381 -3.3965 0.2908 -0.2401 3.7932 0.3280 1.2314 4.1222 0.2873 -0.4663 2.4860 1.0500 0.2392 -1.7934 -0.1375 2.0160 2.9531 -0.2878 0.3953 1.3815 0.4506 -0.6092 -2.9125 -0.7234 -1.5482 -1.4077 1.5071 -0.6172 -0.7210 0.5175 0.5739 -4.2335 -2.4429
1.6209 -4.2641 -3.4901 4.0950 2.1659 -1.0508 -0.4501 -3.9298 1.0128 -0.1180 5.2902 1.0805 2.4187 4.7896 -0.1797 -1.9290 3.0649 0.7801 0.7790 -0.4143 -1.0993 -4.1195 -1.3825 2.2937 -0.6996 -4.4697 -2.9678 3.5372 2.1376 0.2537 0.6763 -3.2008 -1.5884 -2.3476 -2.6418 0.4175 1.3561 1.4991 0.9428 -0.7283 0.5212 1.3177 -3.3009 -0.8914 1.5293 -1.2166 -3.3693 -0.0417 0.2256 4.0591 0.4648 1.7187 3.8339 0.5993 -0.5583 2.9321 1.1172 0.0961 -1.2497 -0.1760 2.0618 2.4322 0.1344 -0.0418 1.5772 0.6546 -0.3780 -2.4747 -0.9287 -1.9757 -1.5043 1.1959 -1.1169 -0.5119 0.4060 0.3951 -3.9988 -2.6780
1.4676 -4.7846 -3.1333 4.1464 2.0422 -1.0637 -1.0895 -4.1670 1.0738 -0.7241 4.9661 0.6212 1.7903 4.8739 -0.7377 -1.9550 2.3871 0.8399 1.0156 -0.9316 -0.8926 -3.3928 -0.3541 2.9239 0.2617 -2.7658 -3.5514 3.5557 2.6915 0.0495 0.3000 -3.6678 -1.4040 -2.5566 -2.3904 0.5520 1.6133 1.6142 0.8813 -0.1889 0.2437 1.4771 -3.0024 -0.5246 1.7778 -1.6563 -3.3708 0.0434 -0.1209 3.7616 0.1813 1.3851 3.9096 0.2190 -0.5723 2.6126 1.0634 0.1599 -1.6428 -0.0091 2.0533 2.5779 -0.0721 0.2210 1.3654 0.7072 -0.5851 -2.7019 -0.7996 -1.8908 -1.4459 1.3930 -0.8430 -0.6743 0.6062 0.6079 -3.6242 -2.7465
1.6220 -6.0269 -1.4335 -0.3559 5.4824 -1.4920 -1.9545 -3.6974 -0.8212 3.0077 3.1379 2.0080 1.5443 5.1812 0.6487 1.3877 0.9619 2.8376 1.3915 -1.5923 1.0107 -3.6897 0.7701 -0.8245 -0.0317 -5.5364 0.2148 -0.2106 4.0719 -1.5055 1.1271 -3.7950 -0.7976 -1.6889 -1.5600 -1.7735 -0.3505 2.1573 -0.1316 -0.7767 0.2462 1.2788 -2.5309 0.4474 -1.0406 -1.0863 -2.8327 -1.5355 1.6278 3.0480 1.7034 1.3501 3.7936 0.4182 1.2226 1.5968 1.5820 0.1143 -1.8519 0.4562 -0.0648 3.5553 -0.0864 -0.2320 1.5589 1.1580 0.2427 -2.6544 -0.8252 -1.8943 -0.8221 -0.5665 -0.5598 -0.5283 0.1057 0.7888 -5.1115 -0.5887
1.2323 -6.4324 -0.5109 -0.0028 6.2220 -0.6078 -1.4777 -2.8727 1.8213 2.2338 2.4086 2.6454 1.4371 4.9524 1.6797 0.5863 0.2762 1.7660 1.5070 -1.9314 -1.0967 -3.3755 1.1789 -0.5028 1.4655 -4.5985 -2.0145 0.5843 5.0327 -1.1072 0.2960 -4.3061 -0.0188 -2.5447 -1.9224 -0.0634 0.2638 2.7099 -0.9511 0.1602 0.4279 -1.1285 -2.8436 0.1521 -0.8992 -1.7445 -2.9938 0.4331 1.1328 2.5851 1.7662 1.3933 3.7802 0.8831 0.9886 1.3421 0.9210 0.3232 -1.8454 -0.3248 0.2914 3.8904 -0.1548 -0.0124 1.5127 -0.2166 -0.4670 -3.1367 -0.3797 -1.8706 -0.6557 -0.1026 -0.5687 -0.7533 -0.8789 1.0119 -5.0230 -0.9574
1.1264 -6.3995 -0.1553 1.4531 5.3337 -1.3626 -1.0613 -2.5762 1.7891 2.0072 2.4139 2.8386 0.8863 4.9129 2.0535 0.8186 0.1731 1.5936 1.2279 -1.9751 -1.8550 -3.5424 1.0527 -0.0591 1.0166 -5.0527 -2.1251 0.1745 5.2066 -0.7595 0.4398 -4.1371 -0.0660 -2.4135 -1.8046 0.0121 0.2571 2.8174 -0.8726 0.2307 0.5331 -1.2086 -2.8067 0.3095 -0.6930 -1.5540 -2.8363 0.4831 0.9742 2.5266 1.8739 1.1008 3.8450 1.1459 1.0681 1.3795 0.8913 0.3497 -1.7976 -0.7544 0.0830 3.9086 0.0212 0.0506 1.5541 -0.2330 -0.4283 -3.0716 -0.5091 -1.7412 -0.5449 -0.0856 -0.5685 -0.6295 -1.0499 0.8513 -5.1414 -0.9136
1.3750 -6.3454 0.0470 -0.7375 5.8137 -0.9520 -1.3897 -2.4970 1.6198 1.7383 2.5768 3.1032 0.5761 4.9536 2.0297 0.9117 0.2045 1.7734 1.6255 -2.2087 -1.4633 -3.1522 1.2540 -0.7717 0.3768 -5.4739 -1.9412 0.4778 5.0866 -0.8802 0.2523 -4.2636 0.0421 -2.3032 -1.6502 -0.3909 0.6643 2.7270 -0.8602 0.7457 0.4119 -1.0677 -2.3534 0.4462 -1.2223 -1.6515 -2.7436 0.2462 0.8761 2.5801 1.9777 1.0339 3.8807 1.2228 1.2059 1.4059 1.0798 0.5504 -1.9135 -0.5853 0.2382 3.8327 -0.0694 0.3920 1.4866 -0.2054 -0.3885 -3.0974 -0.5148 -1.5079 -0.4599 -0.3840 -0.1720 -0.6753 -1.0855 0.6162 -5.3318 -0.7477
2.4991 -4.4331 -1.0631 2.9965 2.7997 -2.1965 -0.5189 -2.9615 1.3940 1.9678 1.5947 2.6297 2.8133 3.7633 0.9394 -0.8370 1.0532 2.2356 -0.2068 -0.5903 -2.3345 -4.1267 0.3515 1.7385 2.1205 -2.3111 -0.0362 1.9336 3.6704 -1.8471 0.4723 -3.2586 -1.3808 -2.6018 -2.3465 0.4765 0.3102 2.0635 -1.0994 -1.7754 1.0964 -0.5023 -3.7971 -0.4305 0.8585 -1.3700 -3.0275 0.2619 1.1555 2.1905 1.6333 2.0194 2.6764 0.4909 0.0957 1.2065 1.1774 -0.5104 -0.9991 -1.0092 1.1523 3.1253 -0.6710 -0.6016 1.7431 -0.0597 -0.6933 -2.5030 -0.9898 -2.4063 -0.9464 0.6683 -1.7863 -0.3156 -0.5636 1.6956 -3.2115 -0.7510
0.3705 -5.5233 -3.1199 4.0989 4.0263 -0.8018 -1.1560 -4.2365 0.5272 -1.1648 4.7009 0.8950 1.3686 5.3519 -0.2525 -1.9005 1.9867 0.4761 0.6016 -0.8646 -1.7084 -1.8511 -0.2729 3.3171 1.2832 -4.5484 -1.1404 3.4824 3.3940 0.3068 -0.4620 -3.4885 -2.2624 -2.4787 -2.2923 0.6168 1.7502 1.8327 0.6358 0.2403 0.1077 1.0021 -2.2703 -0.6763 2.2412 -1.8752 -3.2719 -0.2260 -0.3253 3.7483 0.2611 1.1186 4.1479 0.4546 -0.5900 2.3808 0.8528 0.0070 -1.6254 -0.6683 2.0473 3.0528 -0.0407 0.4305 1.3644 0.3504 -0.9957 -2.5947 -1.2632 -1.4850 -1.5275 1.2972 -0.7059 -0.6864 0.2961 0.4613 -4.4856 -2.0468
0.3261 -5.5151 -2.4285 -0.5413 5.9355 -0.7347 -1.9238 -2.0001 1.8841 1.7885 2.9964 3.0383 0.4613 5.0988 1.6953 1.2573 0.4052 2.0529 1.8781 -2.3418 -0.0214 -2.9431 0.4821 -2.1295 1.3870 -5.4797 -0.2904 0.2075 4.8219 -1.1971 -0.3859 -4.0268 -0.7449 -2.2233 -1.8434 -0.4589 0.5056 2.4859 -0.8619 0.8985 0.1961 -0.7599 -1.9001 -0.1281 -1.9363 -1.7973 -2.6564 0.6354 0.9177 2.7698 1.9423 0.9528 3.9578 1.0103 1.3334 1.5255 1.1885 0.5489 -1.9547 0.2719 0.0879 3.6817 -0.2067 0.4326 1.3286 -0.0225 -0.3728 -3.1543 0.4218 -1.4543 -0.6441 -0.6023 0.0358 -0.9278 -0.7121 0.5232 -5.0132 -1.0337
1.9415 -5.7637 0.1056 -0.8929 5.9446 0.0678 -1.2421 -2.3507 1.8026 2.5766 2.2332 2.5418 1.2832 4.7299 2.1212 1.1689 0.0349 1.4194 1.2403 -2.0519 -1.7365 -3.3052 0.2768 -2.0039 0.6175 -5.3019 -1.8293 0.1267 5.1457 -0.5089 0.2722 -4.0901 0.1270 -2.5015 -1.6714 -0.0794 0.2523 2.8002 -0.7944 0.2495 0.5360 -1.2889 -2.7889 0.4610 -0.9122 -1.6894 -2.6887 0.4976 1.3854 2.3665 1.7838 1.3570 3.7245 1.1244 1.3299 1.2708 0.7414 0.3016 -1.7863 -0.7070 0.1542 3.8118 0.2035 0.1740 1.4889 -0.2303 -0.5280 -3.0201 -0.4250 -1.7957 -0.4426 -0.2415 -0.5653 -0.6139 -1.1183 0.8782 -5.0436 -0.6600
0.7464 -6.5961 -0.0305 -1.7868 5.1161 -0.7892 -1.5496 -2.2311 1.2428 1.5941 3.1003 3.3066 -0.4359 4.7681 2.1357 1.7047 0.5034 2.0968 2.1971 -2.2655 -0.7224 -2.3649 1.1927 -2.1737 -0.7096 -5.5663 -1.6169 -0.4118 4.7715 -0.7917 0.2745 -4.2682 0.0458 -1.8684 -1.4819 -0.9810 0.5932 2.6389 -0.6390 1.3484 0.4263 -0.6974 -1.4103 0.4345 -2.0940 -1.4749 -2.5577 -0.1375 0.7884 2.7151 2.2055 0.4388 3.9398 1.3858 1.5337 1.7013 1.3592 0.9099 -1.8961 -0.2525 -0.2297 3.5510 0.0791 0.7336 1.4282 0.0981 -0.0813 -3.0003 -0.5324 -1.0244 -0.3352 -0.8677 0.4658 -0.6494 -0.9909 0.0189 -5.4397 -0.6386
1.1918 -5.2574 -2.9253 3.2446 3.9710 2.2751 -0.8586 -4.0595 1.2881 -0.6886 4.5828 -0.9289 2.1704 4.7695 -0.8588 -1.6361 1.9237 -0.6263 0.8835 -0.9152 -1.1311 -3.6446 -0.5415 2.7230 0.1327 -3.2072 -3.5442 3.5287 3.1349 1.1650 0.3853 -3.7459 -1.2939 -2.4796 -2.4687 0.6349 1.4946 1.8775 1.2637 -0.2413 0.3292 1.3133 -3.0140 -0.5096 1.6765 -1.5255 -3.4329 0.2020 0.1643 3.4770 -0.6873 1.4193 3.9448 0.0163 -0.5663 2.4446 0.1475 0.1561 -1.6005 -0.1197 2.2553 2.7505 0.4401 0.3973 1.3304 0.5337 -0.5458 -2.7839 -0.7576 -1.8602 -1.4059 1.3567 -0.8671 -0.6486 0.4870 0.5037 -3.9592 -2.6499
1.2317 -4.8534 -3.4504 4.4703 3.3517 1.0487 -0.4940 -4.0011 0.9919 -0.7775 4.8560 -0.5984 1.9890 5.2431 -0.0717 -1.5214 2.1179 -0.8740 0.6982 -0.6359 -1.4693 -3.2562 -0.8521 2.9905 -0.9613 -5.1151 -2.5446 3.2327 3.3479 1.7400 0.4687 -3.5061 -1.6585 -2.3156 -2.5534 0.5605 1.3809 1.9438 1.3435 -0.3145 0.4092 1.1575 -2.8712 -0.7189 1.8378 -1.3251 -3.4081 0.0043 0.1299 3.7779 -0.4386 1.2394 4.1859 0.5036 -0.6060 2.5724 0.1114 0.1286 -1.4072 -0.4209 2.1402 2.9924 0.7573 0.3652 1.4510 0.4674 -0.5083 -2.6475 -1.0274 -1.7165 -1.4654 1.2498 -0.9161 -0.5678 0.3128 0.1088 -4.5172 -2.5233
1.5432 -5.9203 -1.1066 -1.3463 5.7285 0.6247 -2.4966 -4.1228 -0.5865 3.3661 2.5502 0.0514 1.8199 4.9547 -0.0559 2.1844 0.6462 1.8676 1.1598 -1.9532 1.1679 -2.5454 0.8079 -2.1796 2.1525 -3.6338 -1.4223 -1.0556 4.6341 -0.2303 0.1888 -4.1521 -0.2888 -2.6400 -1.8167 -0.2361 -0.7153 2.3817 0.4578 -0.6447 0.2722 1.5528 -1.8667 -0.0731 -1.6746 -1.8828 -2.8676 -0.8354 2.1196 2.7155 0.7066 1.2466 3.6574 -0.0904 1.4602 1.3651 0.8817 -0.2075 -1.9604 0.7978 -0.1464 3.6865 0.5135 0.0097 1.5118 1.3182 -0.4237 -2.8570 -0.3997 -2.0005 -0.5526 -0.2582 -0.6286 -0.5583 0.3978 1.3494 -4.4441 -0.9734
1.0210 -6.0867 0.3332 -0.8833 5.9117 0.1388 -1.0287 -2.8037 1.4166 2.5885 2.0811 2.4591 1.2607 4.5850 2.1756 1.2313 -0.0774 1.2079 0.9869 -1.9625 -2.3333 -3.3379 0.5646 -1.6423 1.8568 -3.8566 0.5210 0.1333 5.1221 -0.4554 0.0765 -4.3075 -0.9063 -2.4839 -1.7533 -0.1214 0.2210 2.7898 -0.8216 0.1907 0.5394 -1.3900 -2.7780 0.4818 -0.5594 -1.6586 -2.8840 0.1474 1.3911 2.2410 1.7175 1.3493 3.6322 1.1295 1.3416 1.2062 0.6153 0.2129 -1.8340 -1.1510 0.1481 3.7651 0.2128 0.1555 1.4595 -0.3050 -0.6487 -3.0606 -0.9685 -1.7387 -0.5349 -0.1854 -0.6529 -0.5936 -1.2539 1.0456 -4.6247 0.0188
0.5821 -4.9786 -3.3523 4.5384 2.9896 0.4947 -0.9236 -4.1649 0.5407 -1.0100 4.5841 -0.5702 1.8163 5.0082 -0.6613 -1.7498 1.8655 -0.3831 0.3102 -0.5823 -1.5790 -2.3911 -0.7433 3.5803 1.5325 -3.8056 -1.5021 3.3771 3.3955 1.2000 -0.5865 -3.2295 -2.2742 -2.5194 -2.4433 0.7703 1.5302 1.9071 1.2370 -0.0377 0.1903 1.2637 -2.5222 -0.8065 2.3662 -1.8250 -3.2991 -0.1333 -0.0612 3.5354 -0.4708 1.2003 4.0512 0.1852 -0.6440 2.3888 0.3339 -0.1575 -1.4506 -0.5569 2.1626 2.9058 0.4433 0.4288 1.3213 0.5375 -1.1107 -2.4584 -1.1729 -1.6180 -1.5819 1.4637 -0.9037 -0.6424 0.5001 0.5819 -3.9563 -2.2603
-0.0517 -5.8979 -2.6504 3.9229 4.7071 -0.2538 -2.8807 -3.8457 -0.5553 -1.6449 4.3113 0.4360 0.8661 5.5465 -0.0927 -1.6965 1.5687 -0.1423 0.4322 -0.7956 -2.0372 -0.6973 -0.8226 3.6175 0.8776 -4.8392 -0.7220 3.2107 4.0428 0.7772 -0.4508 -3.6084 -2.1823 -2.0103 -2.2334 0.8953 1.8189 2.1297 0.7454 0.7474 0.0879 0.7076 -1.2566 -0.7952 2.5305 -1.7010 -3.1936 -0.1036 -0.5013 3.5925 0.0056 0.7441 4.2720 0.5185 -0.5813 2.1654 0.5052 0.1129 -1.5996 -0.9123 1.9602 3.4296 0.1857 0.7149 1.4146 0.1790 -0.9846 -2.5796 -1.3043 -0.8218 -1.6029 1.3509 -0.3214 -0.7112 0.2346 0.1922 -4.7431 -1.7330
1.6969 -6.0945 -0.3288 -1.6721 5.6049 0.7613 -2.0895 -3.6375 -0.9509 3.3090 2.9910 0.5781 1.4623 5.1742 0.7001 2.2219 0.6419 1.8354 1.6280 -1.7694 0.4326 -2.3365 1.2062 -1.8640 -0.1333 -5.0132 0.7540 -1.2778 4.5249 -0.0691 0.8260 -4.0543 -1.1432 -1.7554 -1.5099 -1.8986 -0.7273 2.2727 0.4167 -0.4965 0.0279 1.1917 -2.5508 0.4432 -0.9346 -1.2376 -2.8273 -1.7457 1.9852 2.8774 1.0738 1.0875 3.8518 0.3464 1.5044 1.4500 0.9156 0.2665 -1.9451 0.0840 -0.3647 3.6151 0.7228 0.0155 1.3558 1.2070 0.1714 -2.7662 -1.1855 -1.8116 -0.8281 -0.6472 -0.4087 -0.5867 -0.0957 0.6870 -5.0048 -0.1562
1.5817 -6.1286 -0.1546 -1.4074 5.5860 1.3727 -2.5723 -3.5087 -0.4667 3.2826 2.7264 -0.3253 1.7063 5.0643 0.1365 2.3923 0.5357 1.3190 1.3382 -1.9948 0.7423 -3.5614 1.0780 -0.5600 2.1913 -4.3180 -1.5903 -1.1592 4.6779 0.3113 0.1309 -4.2968 -0.5105 -2.0259 -1.4971 -1.5725 -0.6960 2.3702 0.6217 -0.4754 0.1181 1.3392 -2.4768 0.6024 -0.8619 -1.6566 -2.8499 -1.3296 2.1335 2.7457 0.5046 1.1476 3.7685 -0.0113 1.5250 1.3601 0.5560 -0.0353 -2.0244 0.3974 -0.1397 3.6695 0.7854 0.1493 1.3895 1.2057 -0.2327 -2.9290 -0.8035 -1.9708 -0.7150 -0.3750 -0.5296 -0.6106 0.1115 1.3604 -4.8194 -0.8421
2.1665 -5.3098 0.0012 -0.2075 5.9823 0.2308 -0.9501 -2.4911 1.7062 2.8912 1.4831 1.8934 2.1019 4.2092 1.8389 0.9031 -0.3022 1.0342 0.2598 -2.0073 -2.5449 -4.1187 0.1671 -1.1322 2.0519 -2.9556 0.3429 0.5784 5.0329 -0.4712 0.1794 -4.1162 -0.4394 -2.6664 -1.8267 0.2232 0.0527 2.7506 -0.8118 -0.4081 0.5878 -1.4603 -3.2352 0.3557 -0.3120 -1.6830 -2.8095 0.5358 1.6233 1.9035 1.4140 1.7480 3.2849 0.8231 1.1403 0.9263 0.3681 -0.1873 -1.7778 -1.2164 0.4232 3.6844 0.1974 -0.1287 1.4135 -0.3254 -0.7796 -3.0450 -0.6552 -2.0845 -0.5564 -0.0240 -1.1458 -0.6035 -1.2110 1.4752 -3.9802 -0.0053
1.6389 -6.3536 -0.2905 -1.8045 5.5874 1.5144 -2.3138 -3.4397 -0.4102 3.2491 3.4377 0.2594 1.3241 5.3961 1.0644 2.4933 0.7992 1.0727 1.5925 -1.9653 0.8318 -2.9192 1.1680 -1.3038 0.1085 -5.7238 -2.0137 -1.4611 4.6921 0.4688 0.3334 -4.3848 -0.1281 -1.5451 -1.6801 -1.7889 -0.7355 2.4342 0.5093 -0.3073 0.1685 1.1213 -1.8916 0.5250 -1.4659 -1.3015 -2.9931 -1.3007 2.0122 3.1188 0.8711 0.9715 4.1474 0.4875 1.5820 1.7135 0.4867 0.2443 -2.0020 0.3974 -0.4059 3.7373 0.9810 0.1835 1.4881 1.0284 0.0785 -3.0664 -0.6680 -1.5606 -0.7260 -0.7239 -0.1872 -0.6134 -0.0686 0.6216 -5.4652 -0.9318
0.5501 -4.9918 -3.2268 4.2129 3.6075 1.3300 -1.0136 -4.2253 1.2455 -0.5825 4.0852 -1.6876 2.0936 4.6881 -0.9051 -1.3505 1.4195 -1.1186 1.1397 -1.0377 -0.6160 -3.1739 -0.1060 2.9839 0.7270 -2.6088 -3.2867 2.8582 3.6965 1.7389 0.3787 -3.6843 -1.2570 -2.5361 -2.5062 0.6838 1.1161 2.1239 1.4937 -0.3826 0.3532 1.4260 -3.0489 -0.5963 1.8703 -1.5921 -3.4600 0.1981 0.2541 3.1652 -1.0075 1.2088 3.9166 -0.1087 -0.5930 2.1968 -0.2028 0.1799 -1.6945 0.1937 2.0032 2.9449 0.7440 0.3217 1.3062 0.6365 -0.5225 -2.7623 -0.6221 -1.9172 -1.4891 1.4700 -0.8953 -0.7161 0.6460 0.5641 -3.6253 -2.6215
0.5249 -5.0807 -3.3109 4.3859 3.5674 1.1167 -1.0273 -4.1992 0.5593 -0.9076 4.3887 -1.0672 1.8423 5.0225 -0.6555 -1.4933 1.6479 -0.8338 0.5272 -0.7277 -1.5020 -2.5591 -0.6900 3.4902 1.4958 -4.0174 -1.4049 3.0723 3.6721 1.6375 -0.5456 -3.2714 -2.2424 -2.5336 -2.3910 0.7441 1.4045 2.0230 1.3753 0.0064 0.1851 1.2401 -2.5363 -0.6815 2.2679 -1.8542 -3.2805 -0.1387 0.0668 3.4225 -0.7092 1.1404 4.0733 0.1314 -0.5850 2.2830 0.0515 -0.0711 -1.5349 -0.4999 2.1104 3.0318 0.6609 0.4998 1.3130 0.5248 -1.0583 -2.4821 -1.1520 -1.6284 -1.5358 1.4409 -0.8426 -0.6575 0.4758 0.5655 -4.0809 -2.1997
1.1483 -4.8720 -3.4555 3.6806 4.0873 2.5393 -0.2890 -3.9106 1.2850 -0.0504 4.5392 -1.5090 2.1830 5.1610 0.1204 -0.7035 1.7836 -1.6206 0.7996 -0.7389 -1.3516 -3.8005 -0.1534 1.0251 -0.9452 -5.1615 -2.3453 2.3351 3.6587 2.6308 0.5591 -3.5666 -1.5623 -2.2367 -2.7224 0.6457 0.9653 2.0659 1.6247 -0.5708 0.4982 1.0481 -3.0481 -0.8344 1.7037 -1.1380 -3.5173 0.2155 0.6678 3.5458 -0.7926 1.2393 4.1594 0.4618 -0.2662 2.4085 -0.4260 0.1894 -1.4557 -0.2889 1.9021 3.0832 1.2996 0.3989 1.3888 0.4996 -0.3822 -2.7464 -0.8494 -1.7933 -1.5067 1.2336 -0.9665 -0.6322 0.2824 0.1217 -4.5615 -2.4142
1.6711 -5.9244 0.2331 -1.1982 5.2852 0.4102 -1.1859 -2.2154 1.6124 3.2469 2.9661 1.5875 0.9779 4.0951 2.9264 2.5904 0.6522 0.0556 1.4416 -1.7411 -1.7877 -3.2064 0.1645 -2.3888 0.5042 -5.3323 -1.7663 -1.4833 4.2613 1.3503 0.5646 -3.8464 0.0233 -2.4009 -1.6965 -0.3503 -0.4970 2.5956 -0.0599 0.1596 0.7861 -1.3906 -2.8305 0.3851 -1.2471 -1.5305 -2.6215 0.2952 1.9251 2.4750 1.4428 0.9434 3.6163 1.5919 1.7699 1.8078 0.0911 0.4437 -1.5448 -0.7965 -0.4602 3.1493 1.2498 0.3131 1.4232 -0.1247 -0.2957 -2.8446 -0.5600 -1.8068 -0.4077 -0.4893 -0.5051 -0.4648 -1.2766 0.8489 -5.0233 -0.6318
1.2247 -3.3162 -3.7612 4.2432 2.0161 -0.4885 0.8529 -3.7990 0.8485 -0.8341 4.4568 1.4600 1.9753 4.6434 0.9464 -2.1390 2.7338 -0.4410 -2.8953 -2.2882 0.2572 -2.4511 -0.3002 2.8669 0.0266 -4.8830 -2.4137 3.2936 2.0421 0.5649 -0.0251 -2.6145 -1.8858 -0.3511 -1.9324 1.6336 1.1879 1.2254 -0.0738 -0.7506 0.2748 -0.9998 -1.3544 0.0421 2.4495 0.2756 -2.5471 0.5176 -0.1592 3.7000 0.4672 1.2548 3.4173 0.9290 -0.9261 2.4196 0.2243 -1.8729 -1.7446 -0.5641 1.9462 2.4299 -0.0008 -0.0981 1.4714 -0.6237 -0.7170 -2.7375 -0.6253 -0.6086 -0.5797 1.3034 -1.4433 -0.4112 0.0349 0.3450 -3.7194 -2.6255
1.5733 -6.1847 -0.7933 -1.0067 5.3055 2.6687 -2.4749 -3.5518 0.3320 2.6223 3.1714 -1.2440 1.3711 5.2426 0.2754 2.4849 0.6465 0.1066 1.5691 -2.0198 0.2089 -2.2944 1.1709 -1.3695 1.6840 -4.3252 -2.2909 -1.1991 4.5854 1.4617 0.0881 -4.3547 -0.5994 -2.3389 -1.6165 -1.0149 -0.6068 2.3094 1.1492 -0.0603 0.0195 1.3621 -2.5287 0.5602 -0.3378 -1.8982 -2.9552 -0.8206 1.9115 2.9406 -0.0402 0.7999 3.9552 0.1022 1.3775 1.5228 -0.0253 0.1558 -2.0762 0.2955 -0.0550 3.6114 1.3084 0.4258 1.3344 1.1463 -0.3820 -3.0009 -0.7751 -1.9396 -0.7602 0.0571 -0.4199 -0.6730 0.1664 1.1412 -4.8577 -1.3294
1.1240 -6.4309 -0.4851 -2.2654 5.1995 1.4812 -2.4132 -3.7821 -1.1589 3.0354 3.3364 -0.0260 1.0421 5.3509 0.3070 2.4826 0.9791 1.5340 1.3617 -2.2586 1.1770 -0.7183 1.2368 -2.2199 1.0527 -4.8488 -2.2740 -1.7135 4.4597 0.4037 0.0296 -4.3453 -0.2466 -2.2014 -1.5150 -0.6273 -0.8591 2.2804 0.7886 -0.2528 0.1207 1.5396 -0.9414 0.0763 -1.9095 -1.5503 -2.6573 -1.1725 1.8664 3.1500 0.7534 0.7324 3.9727 0.1794 1.5051 1.6793 0.7811 0.0436 -2.0720 0.6879 -0.5471 3.6606 0.9340 0.1363 1.4802 1.4125 -0.2024 -2.9497 -0.5186 -1.3631 -0.3819 -0.5421 -0.1342 -0.6107 0.3212 0.7503 -5.1301 -1.1200
2.6634 -1.6786 -1.9015 4.4120 0.9624 -0.8736 -1.3447 -4.5204 -0.3291 0.1013 4.6852 0.0999 2.6472 3.8781 -0.9250 -1.7204 2.5359 0.4325 -1.3306 0.0544 -1.6220 -3.5588 -1.1537 3.5387 0.7441 -2.1040 -3.2618 3.7529 1.4719 0.2743 0.5389 -2.0590 -0.9439 -2.4146 -2.8257 0.9185 1.5189 0.9041 0.8499 -0.5945 0.0877 1.3681 -3.4317 -1.3058 2.3333 -1.2317 -3.2215 0.2295 0.4445 3.3376 -0.1704 1.9262 3.1407 0.0471 -0.3415 2.4186 0.7417 -1.6340 -0.9401 -0.6792 2.2921 1.6726 -0.0663 0.1257 0.9851 0.5396 -0.8906 -2.2411 -0.8818 -2.1406 -1.6413 1.6601 -1.7514 -0.4711 0.7601 1.2180 -1.9720 -2.1388
0.5690 -6.4658 -0.4915 -2.7192 4.0591 1.5554 -1.4394 -2.5535 1.0382 2.8061 3.1955 2.2337 0.2528 4.3895 2.7303 2.6065 0.6941 0.8410 1.9912 -1.8541 -1.4425 -1.8228 1.3444 -2.6183 0.7818 -4.7437 1.1512 -1.6949 4.2235 0.5861 0.4019 -4.1783 -1.0675 -2.1628 -1.5859 -0.9959 -0.2730 2.5699 -0.3749 0.7862 0.7020 -1.3211 -2.2378 0.4948 -1.8469 -1.5190 -2.6950 -0.3718 1.5858 2.6433 1.7716 0.5953 3.7588 1.5079 1.8428 1.8428 0.5101 0.7447 -1.6731 -0.7953 -0.6433 3.1761 0.8564 0.5269 1.4149 -0.1168 -0.1559 -2.8647 -0.9891 -1.4241 -0.3601 -0.9194 0.0183 -0.4895 -1.4117 0.5832 -5.0451 -0.0192
0.7209 -6.3079 -1.3262 -0.6640 3.1240 4.1424 -0.6434 -2.6557 1.7221 2.3068 4.6911 -0.1222 1.1414 4.6543 2.4659 2.4618 2.0882 -1.3278 1.3729 -1.6055 -1.8610 -3.2245 0.1441 -1.7624 0.8913 -4.4761 -2.8518 -1.1441 2.8774 2.8310 0.6052 -4.0575 -0.5857 -2.2563 -1.8799 0.1731 -0.4971 1.8669 0.7997 -0.0237 0.7586 -1.2175 -2.8685 0.1894 -0.5947 -1.2677 -2.8649 0.4649 1.8063 3.5083 0.4810 0.6560 3.8634 1.3943 1.3392 2.5660 -0.6032 0.4935 -1.5951 -0.7488 0.0234 2.5847 1.9151 0.5378 1.3901 -0.0637 -0.2500 -2.9081 -0.6560 -1.7184 -0.5702 -0.0028 -0.5483 -0.5255 -0.9693 0.7495 -4.8599 -1.6964
1.7941 -2.5687 -3.2548 4.2984 2.5602 1.3150 0.0162 -4.2379 1.5367 -0.6787 4.7024 -0.2042 2.1099 4.6629 0.4634 -1.4735 2.2928 -1.5541 -2.9178 -2.3745 -0.2948 -3.1800 -0.3576 2.2981 -0.4524 -3.3851 -3.3231 3.0100 2.1884 1.7771 0.5496 -2.9200 -1.2782 -1.0177 -2.1385 1.8256 1.1753 1.1440 0.6967 -0.1711 -0.1159 -0.8046 -2.0008 -0.0515 2.2024 -0.1409 -2.9232 1.0302 0.1637 3.5812 -0.3982 1.2393 3.5603 0.6678 -0.6558 2.3049 -0.3959 -1.6455 -1.9345 -0.7454 2.0424 2.2704 0.6197 0.3154 1.1459 -0.4288 -0.6125 -3.0096 -0.4148 -0.9671 -0.7836 1.3982 -1.2992 -0.6050 -0.0845 0.4988 -3.0079 -2.6496
2.4366 -3.5602 0.6012 0.1606 4.0153 3.6489 -2.2370 -3.9528 0.5537 2.4008 3.5119 -1.5482 1.8854 4.7312 0.9989 2.2871 0.6476 -1.3575 0.5037 -1.3271 -2.4485 -3.6330 0.6806 1.2238 1.9374 -3.9155 -1.7081 -0.4554 3.6974 2.4112 0.2462 -3.2881 -0.2377 -2.9121 -1.9009 -0.4417 -0.2094 1.7441 1.0830 0.2076 -0.4433 0.2247 -3.0602 0.2723 0.2247 -2.1934 -3.1191 -0.5860 2.0048 2.7975 -0.3902 1.1108 3.6677 0.4654 1.3131 1.5129 -0.7956 -0.6870 -1.5397 -1.7284 0.5077 2.8600 1.6029 0.6963 0.8669 0.4313 -0.7986 -2.9572 -1.1876 -2.1271 -0.8946 0.1986 -0.9196 -0.4923 -0.6484 1.5348 -3.6147 -0.5906
2.7129 -1.3432 -1.8981 4.5800 1.0705 -0.3822 -1.1561 -4.5270 -0.3886 0.1024 4.5048 -0.6207 2.7816 3.6289 -1.0823 -1.7288 2.3616 -0.2150 -2.8005 -1.0563 -1.2600 -3.2139 -1.1658 3.6851 0.6408 -0.8060 -2.9526 3.7024 1.4735 0.6561 0.6475 -1.9852 -0.9436 -2.2408 -2.9275 0.9555 1.4174 0.9783 1.0199 -0.7485 0.2459 1.4308 -3.2113 -1.5195 2.5149 -1.0664 -3.2520 0.2234 0.4930 3.1421 -0.5879 1.9265 3.0400 -0.1158 -0.4244 2.3759 0.3421 -1.5255 -0.9102 -0.6459 2.3057 1.5836 0.0862 0.0814 0.9507 0.5174 -0.7748 -2.2151 -0.8476 -1.9743 -1.7562 1.7116 -1.7498 -0.5500 0.8141 1.2238 -1.3417 -2.0169
2.0231 -5.4782 -0.8104 -0.6635 2.8158 3.9201 -0.7895 -2.8015 1.2115 3.0892 3.5956 -0.2848 2.0058 3.8800 2.3449 2.1217 1.2656 -1.6385 0.6859 -1.3308 -2.6036 -3.9379 0.7363 0.5024 2.0240 -3.2955 0.1537 -0.8359 3.3195 2.6053 0.3418 -3.9105 -1.3371 -2.5502 -1.9597 -0.1177 -0.6643 2.1707 0.5380 -0.6598 0.9209 -1.4495 -3.3005 0.1792 -0.3791 -1.5031 -2.9202 -0.0090 2.1275 2.7077 0.2628 1.2403 3.4603 1.2284 1.3014 2.1190 -0.8580 0.0110 -1.4303 -1.3600 0.0939 2.5706 1.6776 0.1129 1.3357 -0.3228 -0.5827 -2.8134 -1.2080 -2.0568 -0.6197 -0.1508 -1.1153 -0.4143 -1.3249 1.4810 -4.1029 -0.5907

>  <OB_ATOM_TYPES> (1sltA1)
C.3 O.3 O.3 O.3 O.3 O.3 O.3 O.2 O.2 C.3 N.am O.3 O.3 O.3 C.2 C.3 C.3 C.3 C.3 C.3 C.3 C.3 C.3 C.3 C.3 C.2

>  <ENSEMBLE_RMSD> (1sltA1)
0.000 0.782 0.787 0.827 0.922 1.040 1.224 1.239 1.355 1.420 1.482 1.549 1.591 1.622 1.624 1.638 1.654 1.689 1.691 1.698 1.790 1.833 1.861 1.897 1.986 2.045 2.126 2.128 2.180 2.182 2.202 2.237 2.243 2.260 2.266 2.266 2.275 2.301 2.316 2.351 2.376 2.385 2.393 2.425 2.541 2.592 2.593 2.740 2.756 2.769

$$$$
