
 OpenBabel03071213D

 22 24  0  0  0  0  0  0  0  0999 V2000
   16.3490    6.1540   13.9070 O   0  0  0  0  0
   20.6500    5.2570   20.0320 O   0  0  0  0  0
   15.1520    6.3570   11.9150 O   0  0  0  0  0
   19.4540    4.3730   10.3070 C   0  0  0  0  0
   18.2900    4.8320    9.7060 C   0  0  0  0  0
   23.3580    3.0170   17.7300 C   0  0  0  0  0
   23.1500    2.8700   16.3610 C   0  0  0  0  0
   19.6060    4.4060   11.6970 C   0  0  0  0  0
   17.2490    5.3500   10.4860 C   0  0  0  0  0
   22.4510    3.7520   18.4860 C   0  0  0  0  0
   22.0280    3.4200   15.7550 C   0  0  0  0  0
   19.2970    5.6410   18.0450 C   0  0  0  0  0
   19.0780    5.4710   16.6710 C   0  0  0  0  0
   18.6790    4.9940   13.9650 N   0  0  0  0  0
   19.7360    4.5610   14.4830 N   0  0  0  0  0
   16.2450    5.9730   12.7000 C   0  0  0  0  0
   20.4160    5.0660   18.6520 C   0  0  0  0  0
   18.5670    4.9370   12.4850 C   0  0  0  0  0
   19.9870    4.7310   15.9040 C   0  0  0  0  0
   17.3970    5.3810   11.8730 C   0  0  0  0  0
   21.3280    4.3260   17.8810 C   0  0  0  0  0
   21.1180    4.1590   16.5090 C   0  0  0  0  0
  1 16  1  0  0  0
  2 17  1  0  0  0
  3 16  2  0  0  0
  4  5  2  0  0  0
  4  8  1  0  0  0
  5  9  1  0  0  0
  6  7  1  0  0  0
  6 10  2  0  0  0
  7 11  2  0  0  0
  8 18  2  0  0  0
  9 20  2  0  0  0
 10 21  1  0  0  0
 11 22  1  0  0  0
 12 13  2  0  0  0
 12 17  1  0  0  0
 13 19  1  0  0  0
 14 15  2  0  0  0
 14 18  1  0  0  0
 15 19  1  0  0  0
 16 20  1  0  0  0
 17 21  2  0  0  0
 18 20  1  0  0  0
 19 22  2  0  0  0
 21 22  1  0  0  0
M  END
>  <MOLID> (1srjB1)
1srjB1

>  <SMILES_CANONICAL> (1srjB1)
OC(=O)c1ccccc1/N=N/c1ccc(c2c1cccc2)O	

>  <FINGERPRINT> (1srjB1)
0000000000000000000000000000001000000000000000000000100000001000011000000000000000000001000000000000000000000001000000100000000000000000000000000000000000010000000000000000000101000000000000000000001000000000000000000000000000000000000000000000000000000000000000000000000000000011100000000000000000000100000010000100000000000000000000000000000000000100010000000000000010010000000000000000000000000000100000000000001000001000000000000000000000000000000000000000001000000000010100000000000000001010000000000000100000000000000000001000000000000000000000101000000000000000000000000000000000000000000000000000000000000000000000100000000000000000010000000000000000000000000000000000100000000010000010100010100000100000000000000000000000000010000000000100000000100000000001000000000000000001000000000100000010000101000000000000000000100000100000000000010000000000000000000000000000000000000000000000000000000000000100000000000000000000000000000000011000000000000000001100000000000000000000000000000000000000000000000000000000000000

>  <MACCS166> (1srjB1)
000000000000000000000000010000000000000000001000010100000000000000000000000100000000000000000100101000001000000010000010001110100110101100110111110001010101111010111000

>  <OB_MW> (1srjB1)
292.085

>  <OB_logP> (1srjB1)
4.659

>  <OB_PSA> (1srjB1)
82.25

>  <OB_MR> (1srjB1)
83.5483

>  <OB_ATOMIC_CHARGES> (1srjB1)
-0.2404961957 -0.2865702585 -0.2404961957 0.001608321 0.0003110025 0.0001028808 5.18863e-05 0.0211219037 0.0081598622 0.0032280068 0.0016542584 0.0436291006 0.0241871648 -0.1477862652 -0.1479965775 0.3892684599 0.1957436039 0.10921302 0.1030349818 0.0990935696 0.0404554514 0.0224820192

>  <MCT_HBD> (1srjB1)
2

>  <MCT_HBA> (1srjB1)
5

>  <ENSEMBLE_TOTAL> (1srjB1)
3

>  <ENSEMBLE_COORDS> (1srjB1)
-3.1776 1.3800 -0.8907 1.1234 0.4830 5.2343 -4.3746 1.5830 -2.8827 -0.0726 -0.4010 -4.4907 -1.2366 0.0580 -5.0917 3.8314 -1.7570 2.9323 3.6234 -1.9040 1.5633 0.0794 -0.3680 -3.1007 -2.2776 0.5760 -4.3117 2.9244 -1.0220 3.6883 2.5014 -1.3540 0.9573 -0.2296 0.8670 3.2473 -0.4486 0.6970 1.8733 -0.8476 0.2200 -0.8327 0.2094 -0.2130 -0.3147 -3.2816 1.1990 -2.0977 0.8894 0.2920 3.8543 -0.9596 0.1630 -2.3127 0.4604 -0.0430 1.1063 -2.1296 0.6070 -2.9247 1.8014 -0.4480 3.0833 1.5914 -0.6150 1.7113
-3.5245 -0.2236 -1.1018 1.7543 0.9776 4.9038 -2.3950 -2.0947 -1.7779 -0.5350 1.7239 -4.4653 -1.5473 0.9465 -4.8885 1.6785 -2.8299 3.0436 1.4109 -2.9057 1.6184 -0.1426 1.7110 -3.0675 -2.2300 0.0766 -3.9496 1.7131 -1.6564 3.7002 1.1747 -1.8083 0.8774 1.3290 2.0061 2.8026 1.0784 1.9370 1.4840 -0.4790 0.8738 -0.8404 0.7222 0.6973 -0.5356 -2.5870 -0.8910 -1.8121 1.5243 0.7910 3.5645 -0.7390 0.8785 -2.1872 0.9640 0.6462 0.8144 -1.8483 0.0525 -2.6596 1.4827 -0.4168 2.9673 1.1958 -0.4918 1.5092
0.6603 -1.3532 -3.4380 1.1101 0.0498 5.2427 1.2353 0.6886 -2.5813 -3.7628 0.7631 -3.0696 -3.0169 0.7734 -4.1886 3.5440 -1.3579 2.0756 3.0731 -1.2050 0.7107 -3.1573 0.4246 -1.7944 -1.6034 0.4515 -4.1203 2.8184 -0.9431 3.1292 1.8886 -0.6357 0.4256 -0.5317 0.7438 3.6716 -0.9677 0.8921 2.4097 -1.2381 -0.2184 -0.5374 -0.6873 0.7350 0.0560 0.3997 -0.1160 -2.9590 0.7503 0.1212 3.9213 -1.8424 0.1373 -1.7129 -0.1704 0.4201 1.2851 -1.0502 0.1147 -2.9409 1.5167 -0.3245 2.9063 1.0318 -0.1615 1.5087

>  <OB_ATOM_TYPES> (1srjB1)
O.co2 O.3 O.co2 C.ar C.ar C.ar C.ar C.ar C.ar C.ar C.ar C.ar C.ar N.2 N.2 C.2 C.ar C.ar C.ar C.ar C.ar C.ar

>  <ENSEMBLE_RMSD> (1srjB1)
0.000 1.727 2.366

$$$$
