
 OpenBabel03071213D

 16 17  0  0  0  0  0  0  0  0999 V2000
    8.1470    5.3730  -14.1720 O   0  0  0  0  0
    8.6970    3.4980  -15.1320 O   0  0  0  0  0
   14.6920   -0.4460   -8.2050 O   0  0  0  0  0
   11.4870    2.9720  -11.9640 C   0  0  0  0  0
   10.2150    3.2470  -12.6580 C   0  0  0  0  0
   11.6270    1.5580  -11.4020 C   0  0  0  0  0
   10.3210    4.4130  -13.7020 C   0  0  0  0  0
   10.2990    0.6200   -7.7600 C   0  0  0  0  0
   12.4430   -0.6310   -7.6130 N   0  0  0  0  0
   12.9740   -0.2370   -9.6950 N   0  0  0  0  0
   10.8840    2.1030   -8.6620 S   0  0  0  0  0
   11.1420   -0.5430   -8.2740 C   0  0  0  0  0
   10.9230    1.0860  -10.1950 C   0  0  0  0  0
   11.5130   -0.2650   -9.7270 C   0  0  0  0  0
    9.0510    4.5760  -14.4590 C   0  0  0  0  0
   13.4670   -0.4430   -8.4530 C   0  0  0  0  0
  1 15  1  0  0  0
  2 15  2  0  0  0
  3 16  2  0  0  0
  4  5  1  0  0  0
  4  6  1  0  0  0
  5  7  1  0  0  0
  6 13  1  0  0  0
  7 15  1  0  0  0
  8 11  1  0  0  0
  8 12  1  0  0  0
  9 12  1  0  0  0
  9 16  1  0  0  0
 10 14  1  0  0  0
 10 16  1  0  0  0
 11 13  1  0  0  0
 12 14  1  0  0  0
 13 14  1  0  0  0
M  END
>  <MOLID> (1stpA1)
1stpA1

>  <SMILES_CANONICAL> (1stpA1)
OC(=O)CCCC[C@@H]1SC[C@H]2[C@@H]1NC(=O)N2	

>  <FINGERPRINT> (1stpA1)
0000000000000001000000000000000001000111000000000011000000000000001000000001000000000000000000000000000000010000000011000100000000000000000010000000000000000000000000000000000000000000000000000000000000000000000000000000010000000000000000000010000000000000000001000010000000000000000000000000001000000000010000001100000000000000001000000000000000000000010000000000011100010000000000000000010000000001100100000000110000000000100001000000000100000000000000000000000000000000000000000000000000001000000000000000100000000100000000000001000000000000000000000000000000100000000000000000000001000000001000000110000000000000000000000000000100000001110000000000000000000001000000000011000000000101000011100001000000000001000000000000001100000000000010000011000000000000000110000000000000000001000000000000000000000000000000000000000000000000000000000000000001000000000000000001000000000000000000000010000000001000000000000000000000000000000000000000010000000000001000010000000000001010000000000000000000000011000000010000001000000000

>  <MACCS166> (1stpA1)
000000000000000000000000000000000001100000100000000000000000000000000000000010001010000101100001000000011100011000001101101000111011000111110110011000101111111010011000

>  <OB_MW> (1stpA1)
244.088

>  <OB_logP> (1stpA1)
1.4544

>  <OB_PSA> (1stpA1)
103.73

>  <OB_MR> (1stpA1)
69.3412

>  <OB_ATOMIC_CHARGES> (1stpA1)
-0.2456538502 -0.2456538502 -0.2491875646 0.0015015513 0.0118314758 0.0125963038 0.1140596199 0.081023281 -0.1862871858 -0.1863169484 -0.1374421108 0.1284087405 0.0694169204 0.1275481487 0.3648592673 0.3392962014

>  <MCT_HBD> (1stpA1)
3

>  <MCT_HBA> (1stpA1)
5

>  <ENSEMBLE_TOTAL> (1stpA1)
50

>  <ENSEMBLE_COORDS> (1stpA1)
-2.9706 3.6929 -3.4174 -2.4206 1.8179 -4.3774 3.5744 -2.1261 2.5496 0.3694 1.2919 -1.2094 -0.9026 1.5669 -1.9034 0.5094 -0.1221 -0.6474 -0.7966 2.7329 -2.9474 -0.8186 -1.0601 2.9946 1.3254 -2.3111 3.1416 1.8564 -1.9171 1.0596 -0.2336 0.4229 2.0926 0.0244 -2.2231 2.4806 -0.1946 -0.5941 0.5596 0.3954 -1.9451 1.0276 -2.0666 2.8959 -3.7044 2.3494 -2.1231 2.3016
-2.8842 3.5704 -3.4052 -2.7567 1.3845 -4.0484 3.3156 -3.3313 2.4669 0.4203 1.1562 -1.5304 -0.6828 2.1676 -1.7249 0.7146 1.0026 -0.0575 -0.8076 2.5137 -3.1888 -0.8545 -1.0036 2.9159 1.1308 -2.5980 3.0099 2.2041 -1.6629 1.2043 -1.3096 0.0692 1.4862 0.1864 -1.8494 2.2490 0.1688 -0.3128 0.4454 1.0547 -0.8775 1.5142 -2.2414 2.3931 -3.5903 2.3415 -2.6220 2.2538
-2.6972 3.6328 -2.5145 -2.4282 2.8247 -4.6317 3.5649 -2.8247 2.7674 0.0949 0.1975 -1.9652 -1.1602 0.9184 -2.3964 0.3840 0.4810 -0.5094 -0.8192 2.2954 -2.9163 -0.7935 -0.8309 2.9898 1.3501 -2.1760 3.3009 2.2058 -1.6353 1.2366 -1.4394 -0.1883 1.3844 0.2863 -1.7271 2.4648 -0.0001 -0.7026 0.3461 1.0013 -0.9011 1.4427 -2.0576 2.9191 -3.4715 2.5081 -2.2829 2.4724
-3.0590 3.3409 -3.6895 -1.1650 2.5798 -4.7104 3.4938 -3.2213 2.2300 -0.3687 0.4094 -1.7136 -1.6351 1.2197 -1.8626 0.2155 0.5953 -0.3331 -1.3129 2.6280 -2.3050 -0.4185 -0.6604 3.3075 1.5434 -2.2837 3.1925 2.0403 -1.8151 0.9971 -1.2837 0.0893 1.8609 0.4066 -1.6783 2.5816 -0.1484 -0.5678 0.5588 1.0116 -0.9304 1.4362 -1.8077 2.8234 -3.7006 2.4880 -2.5286 2.1501
-2.3347 3.9886 -3.4677 -3.3359 1.9492 -3.2514 3.4865 -2.8873 2.9300 0.2330 0.7367 -1.8054 -0.3080 2.1075 -2.1279 0.6007 0.6859 -0.3422 -0.9429 2.1060 -3.4971 -0.9851 -1.1593 2.7152 1.1816 -2.4131 3.1936 2.2931 -1.5638 1.3691 -1.4371 -0.3598 1.1156 0.2253 -1.9156 2.2614 0.1829 -0.6315 0.2663 1.0221 -0.9252 1.4736 -2.3345 2.6371 -3.3799 2.4531 -2.3554 2.5469
-1.4189 3.9611 -4.1548 -3.3938 2.9599 -3.6039 3.7648 -2.6876 2.7312 -0.0798 0.5785 -1.6460 -1.0816 1.6630 -1.9571 0.2526 0.6288 -0.1745 -1.3214 1.7362 -3.4450 -0.8444 -1.3716 3.0065 1.4664 -2.4288 3.2376 2.3054 -1.4560 1.3312 -1.5232 -0.5998 1.4729 0.3794 -2.0064 2.4194 0.0201 -0.7195 0.4635 0.9989 -0.9377 1.5758 -2.1787 2.9267 -3.7238 2.6542 -2.2469 2.4668
-2.4874 3.4194 -3.7078 -3.0029 1.4376 -2.7001 3.2768 -2.9433 2.8671 0.2977 0.5985 -2.1092 0.1344 2.0097 -2.6222 0.7450 0.6099 -0.6673 -1.0650 2.6890 -1.9990 -0.9936 -0.7880 2.5703 1.0250 -2.2419 3.1059 2.1811 -1.6587 1.2065 -1.3703 -0.0112 0.9384 0.1031 -1.7191 2.1493 0.1620 -0.5720 0.0682 0.9875 -0.8860 1.2768 -2.2803 2.4149 -2.8239 2.2869 -2.3589 2.4471
-3.2989 2.0363 -3.5633 -2.2433 4.0594 -3.6113 3.4241 -3.1913 2.6827 -0.0447 0.5647 -1.7662 -0.4427 1.9746 -2.1265 0.5527 0.5614 -0.3802 -0.9622 2.0156 -3.5427 -0.7059 -0.7828 3.0652 1.2968 -2.3415 3.2847 2.1648 -1.8170 1.2212 -1.3166 -0.0210 1.5000 0.2667 -1.7640 2.4854 0.0515 -0.6227 0.4116 1.0426 -0.9766 1.4785 -2.2082 2.8391 -3.5679 2.4234 -2.5342 2.4287
-1.2565 3.0777 -4.8485 -3.1084 2.4767 -3.6586 3.7548 -2.7729 2.0101 -1.0395 0.7430 -1.2370 -0.3301 1.5239 -2.3159 -0.2050 0.7176 0.0212 -1.0106 2.8559 -2.5302 -0.5925 -1.2760 3.3796 1.6528 -2.4335 3.0459 2.0543 -1.4723 0.9963 -1.5778 -0.4336 2.0668 0.4208 -1.9566 2.5112 -0.3400 -0.6212 0.7070 0.8684 -0.9033 1.5474 -1.9219 2.7630 -3.7118 2.6311 -2.2882 2.0165
-2.8791 3.4055 -3.1014 -3.0090 1.1963 -2.5458 3.0451 -3.1953 2.9040 0.8417 1.1904 -1.8369 -0.0965 2.3567 -2.0334 1.0668 0.9656 -0.3599 -0.9169 2.1460 -3.2830 -1.1147 -0.8799 2.3205 0.8000 -2.4454 2.9286 2.2357 -1.6100 1.3382 -1.2514 0.1065 0.7688 0.0405 -1.7542 1.9404 0.4130 -0.3224 0.0845 1.0480 -0.8202 1.3482 -2.3665 2.1650 -2.9214 2.1432 -2.5045 2.4485
-1.4482 3.6260 -3.3484 -1.7805 1.8122 -4.6968 3.4518 -2.8679 1.4306 0.2342 1.2928 -1.1294 -0.7880 0.6602 -2.0463 -0.2170 1.2854 0.3142 -1.9440 1.6030 -2.2959 -0.6146 -1.1742 3.3576 1.4784 -2.4760 2.6811 1.8687 -1.2294 0.7897 -1.5699 -0.0349 2.2616 0.2830 -1.7883 2.3264 -0.4288 -0.1232 0.8155 0.7910 -0.6382 1.5162 -1.7168 2.3192 -3.5877 2.4007 -2.2667 1.6116
-2.9929 2.7013 -3.7007 -1.2069 1.4797 -4.4267 2.9041 -3.6289 1.5025 0.5086 1.6714 -1.2108 -0.7841 2.4186 -1.4408 0.7310 1.4479 0.2660 -1.7964 1.5020 -2.0881 -0.6048 -0.8139 3.1850 1.0400 -2.6790 2.6120 1.9305 -1.5887 0.7940 -1.0961 0.5666 2.0643 0.1369 -1.6594 2.1962 0.0719 0.1592 0.6950 1.0256 -0.7077 1.4589 -1.9334 1.8759 -3.5281 2.0660 -2.7451 1.6213
-1.6724 1.3428 -4.1269 -2.3453 3.4947 -3.7737 3.7050 -2.5111 1.8508 -0.0834 1.0285 -0.7011 -0.9605 2.1432 -1.2146 -0.8419 -0.2799 -0.7410 -0.4621 2.5970 -2.5659 -0.4803 -0.5833 3.1973 1.7728 -1.7622 2.9990 1.7638 -1.7920 0.6994 -1.7381 -0.4209 1.8559 0.4368 -1.5701 2.5402 -0.6996 -1.1277 0.5046 0.6450 -1.0383 1.1584 -1.6002 2.5575 -3.5322 2.5605 -2.0784 1.8497
-1.8830 1.8239 -4.7651 -2.8796 2.6666 -2.8966 3.3796 -2.9358 1.3864 0.5640 1.5039 -0.8477 -0.3805 1.1352 -1.9668 -0.1222 1.3991 0.4958 -0.5012 2.2825 -2.9396 -0.7300 -1.3216 3.2652 1.3380 -2.6335 2.5500 1.8495 -1.2253 0.8044 -1.5888 -0.0340 2.2615 0.1741 -1.8819 2.2078 -0.4111 -0.0411 0.8467 0.7556 -0.6786 1.5339 -1.8873 2.2826 -3.4933 2.3231 -2.3421 1.5574
-1.8369 3.9896 -2.9570 -2.9846 2.3403 -1.8757 3.4576 -2.2847 3.1646 0.0880 0.1984 -2.2521 0.0187 1.5634 -2.8925 0.4737 0.3589 -0.8013 -1.3309 1.7755 -3.5360 -1.1257 -1.0782 2.4546 1.1049 -2.0230 3.2343 2.2388 -1.4134 1.3293 -1.5561 -0.5994 0.7260 0.1596 -1.8015 2.1887 0.1198 -0.8757 -0.0066 0.9121 -0.8979 1.2653 -2.1413 2.6986 -2.6840 2.4023 -1.9509 2.6424
-2.7760 1.3136 -3.5910 -1.1546 2.1879 -4.9386 2.9780 -3.6397 1.3369 -0.8978 1.6419 -0.7075 -0.3193 2.3767 -1.8907 0.2081 1.1445 0.1910 -1.4382 3.0063 -2.6868 -0.1323 -0.7754 3.6016 1.4156 -2.6340 2.8037 1.6850 -1.7609 0.6939 -1.0064 0.4385 2.5238 0.3549 -1.7183 2.5446 -0.2442 -0.0959 0.9256 0.9332 -0.8390 1.4811 -1.7399 2.1410 -3.8676 2.1342 -2.7872 1.5800
-2.9007 1.1013 -2.6368 -2.9218 3.3587 -2.9716 2.9639 -3.2914 2.8505 0.7862 1.0221 -1.9302 -0.0270 2.2732 -2.1626 1.0757 0.8754 -0.4555 -0.9112 2.0872 -3.3720 -1.0070 -0.6260 2.4966 0.8046 -2.3359 3.0248 2.1568 -1.7216 1.2697 -1.1986 0.2886 0.9071 0.0228 -1.6253 2.0677 0.3527 -0.3256 0.1086 1.0524 -0.8220 1.3381 -2.3361 2.2867 -2.9690 2.0875 -2.5453 2.4346
-3.0078 2.5003 -4.0915 -0.9130 1.7138 -4.5398 2.5211 -3.9576 1.8356 -0.2001 1.4925 -1.0128 -1.5127 2.1278 -1.4011 -0.2196 1.1414 0.4542 -1.3105 3.0544 -2.5761 -0.1117 -0.7867 3.2714 1.9712 -1.9755 2.9647 1.5071 -2.1446 0.7485 -1.3424 -0.7758 1.9487 1.2680 -0.7498 2.6390 -0.1882 -0.3596 0.6247 1.1702 -0.7938 1.1191 -1.6888 2.3378 -3.8320 2.0572 -2.8246 1.8473
-0.9869 2.1781 -4.7410 -1.8194 4.0815 -3.7957 3.7482 -2.9139 2.0870 -0.9785 0.5075 -1.3973 -1.5643 1.8835 -1.5986 -0.0703 0.5332 -0.1921 -2.3691 1.9197 -2.8747 -0.4380 -0.9731 3.3993 1.7189 -2.3062 3.1464 2.0789 -1.6599 0.9696 -1.4367 -0.2632 2.0195 0.4902 -1.8342 2.5981 -0.2708 -0.7021 0.6528 0.9520 -0.9532 1.4816 -1.7098 2.8653 -3.8249 2.6556 -2.3630 2.0701
-0.2671 3.5335 -3.7664 -2.3452 3.0311 -4.5696 3.9386 -2.1666 1.8410 -1.5490 0.0294 -1.3178 -1.0652 0.8755 -2.4707 -0.7417 0.3244 -0.0755 -1.6674 2.2584 -2.3902 -0.4578 -1.2230 3.5071 1.9156 -2.0290 3.0621 1.9481 -1.3163 0.8763 -1.6979 -0.7497 2.2242 0.5742 -1.8455 2.6170 -0.5806 -0.9211 0.7618 0.7327 -0.8835 1.4831 -1.4903 2.9557 -3.6992 2.7531 -1.8732 1.9166
-2.8638 3.2552 -3.0910 -1.2943 3.2742 -1.4346 3.4660 -2.4327 2.8714 0.0560 -0.1317 -2.3761 -1.2411 0.4886 -2.8405 0.3513 0.2835 -0.9536 -0.9963 1.8781 -3.3810 -0.9878 -0.6729 2.6011 1.1935 -1.8487 3.1938 2.1509 -1.5110 1.1310 -1.5593 -0.2512 0.8980 0.1631 -1.5659 2.2497 -0.0380 -0.8109 0.0103 0.9006 -0.8285 1.1775 -1.7066 2.8619 -2.5081 2.4058 -1.9880 2.4522
-0.5204 2.4413 -4.5986 -2.2797 1.1034 -4.0313 3.4166 -3.0320 1.1190 -1.2568 1.5591 -0.5777 -0.6298 2.5077 -1.5687 -0.2487 1.2056 0.4888 -1.6452 2.9357 -2.6014 -0.3637 -1.2955 3.5082 1.5969 -2.6304 2.5808 1.7797 -1.3824 0.6583 -1.4147 -0.1152 2.5577 0.3751 -1.9270 2.3687 -0.4720 -0.2080 0.9708 0.8042 -0.7818 1.5073 -1.5373 2.0449 -3.7970 2.3958 -2.4255 1.4152
-1.8372 0.6934 -3.7263 -2.3182 2.8225 -4.3926 3.2189 -3.0256 0.9874 0.0644 1.3852 -0.8357 -0.6821 2.4734 -1.5661 -0.3510 1.3528 0.6148 -0.3703 2.3867 -3.0415 -0.3989 -1.2139 3.5705 1.4787 -2.5943 2.5343 1.6281 -1.3059 0.6370 -1.4692 -0.0077 2.6720 0.2775 -1.8413 2.3911 -0.5702 -0.0739 1.0603 0.7106 -0.6898 1.5402 -1.6156 2.0284 -3.7859 2.2344 -2.3901 1.3406
-1.6220 3.6002 -3.8186 -2.1294 3.4237 -1.6012 3.6958 -1.8360 2.6983 0.0346 0.5380 -1.3318 -0.2099 1.0756 -2.7211 -0.2471 -0.9481 -1.2943 -1.6636 1.4477 -2.8991 -0.9535 -0.6234 2.6161 1.4328 -1.3350 3.1860 2.0601 -1.6470 0.9957 -1.8031 -0.8977 0.9998 0.2638 -1.4643 2.3818 -0.3286 -1.5397 0.0961 0.7533 -1.0758 1.0225 -1.8270 2.9143 -2.6696 2.5437 -1.6326 2.3394
-1.7744 3.6895 -1.9037 -2.6058 1.6913 -2.6295 3.5562 -1.4141 2.4603 0.5624 -0.0526 -1.9026 0.3926 1.4155 -1.5866 -0.6526 -0.8186 -1.4326 -0.2395 2.1389 -2.7527 -1.1769 -0.6125 2.4622 1.2665 -1.1136 2.9835 1.8803 -1.3631 0.7855 -2.0296 -0.9540 0.8630 0.0992 -1.3448 2.2012 -0.5246 -1.4801 -0.0779 0.5267 -0.9129 0.8332 -1.6650 2.4426 -2.4231 2.3844 -1.3115 2.1196
-1.5619 1.2083 -4.5127 -1.9073 3.4609 -4.3835 3.5019 -2.7938 1.0685 -1.0625 0.8363 -0.9531 -1.2731 2.2126 -1.5341 -0.6889 0.9482 0.5039 -0.4612 2.3579 -2.7993 -0.1713 -1.2167 3.7262 1.8194 -2.4333 2.6962 1.6496 -1.3751 0.6623 -1.4557 -0.2722 2.7955 0.5111 -1.8825 2.5704 -0.6754 -0.4247 1.1302 0.7105 -0.7932 1.5646 -1.3926 2.4352 -3.9647 2.4573 -2.2681 1.4295
-0.6196 3.3040 -1.8436 -2.5695 3.5055 -3.0117 3.7269 -1.7625 2.8008 -0.4931 -0.3811 -2.2688 -1.6107 0.4817 -2.8061 -0.1122 0.0831 -0.8832 -1.0435 1.7012 -3.4956 -1.0096 -1.0189 2.7475 1.4023 -1.6689 3.2421 2.1522 -1.2244 1.1147 -1.7542 -0.8231 1.0710 0.2864 -1.6597 2.3544 -0.1939 -1.0537 0.1064 0.7867 -0.8283 1.2168 -1.5229 2.9210 -2.7773 2.5747 -1.5757 2.4327
-2.1050 3.2881 -3.2070 -0.2068 2.6888 -4.3263 3.5911 -2.0497 0.8678 -0.7802 1.1511 -0.4004 -0.2209 0.9709 -1.7915 -1.6661 -0.0128 -0.0196 -1.2974 1.1282 -2.8404 -0.1889 -0.8525 3.5831 2.0049 -1.7048 2.5923 1.3787 -1.3447 0.4095 -1.7567 -0.5902 2.6473 0.5888 -1.5827 2.5330 -1.0809 -0.9805 0.9824 0.3779 -0.8049 1.2726 -1.1093 2.4342 -3.5437 2.4708 -1.7385 1.2408
-0.7423 2.1079 -4.8610 -2.7752 2.4710 -3.8920 3.1262 -3.0896 0.8819 -1.4071 1.2621 -0.6347 -0.5218 1.3547 -1.8544 -0.5694 1.1867 0.6207 -0.7605 2.6570 -2.5821 -0.5557 -1.8574 3.1389 1.7507 -2.4448 2.6643 1.8541 -1.1225 0.8224 -1.5833 -0.5838 2.3854 0.8563 -1.3467 2.9468 -0.4034 -0.2482 1.0658 0.9511 -0.4368 1.7191 -1.5585 2.3966 -3.8196 2.3388 -2.3063 1.3985
-1.8985 3.5828 -4.2220 0.0722 2.4355 -4.3004 3.5852 -2.4031 0.8309 -1.2825 0.4363 -0.9253 -1.3894 1.7712 -1.6183 -1.1552 0.6479 0.5629 -1.7985 1.5587 -3.0557 0.0065 -1.2140 3.8023 2.0425 -2.1935 2.6171 1.5063 -1.3003 0.5673 -1.4955 -0.5299 2.9764 0.6592 -1.8486 2.6122 -0.8748 -0.6692 1.2443 0.5874 -0.8083 1.5403 -1.0805 2.5490 -3.9129 2.5155 -2.0145 1.2810
-1.0733 2.6442 -4.9611 -2.0758 3.4062 -3.0597 3.7247 -1.8766 1.0210 -0.5064 0.9449 -0.6407 -1.0874 0.8333 -2.0276 -1.4630 0.4047 0.3940 -0.3147 1.7511 -2.9436 -0.2845 -1.4142 3.6286 1.9987 -1.9908 2.6431 1.5311 -1.1105 0.5740 -1.8001 -0.9982 2.6612 0.5856 -1.8788 2.5004 -0.9821 -0.8950 1.0047 0.4465 -0.8193 1.4584 -1.2661 2.6847 -3.6214 2.5668 -1.6856 1.3686
-2.8245 1.0407 -2.6371 -1.5617 1.4861 -4.4846 2.5888 -3.3496 0.7038 1.0167 1.9024 -0.7362 0.1759 1.3007 -1.8372 0.3478 1.8555 0.6196 -0.8668 2.2808 -2.3176 -0.6322 -0.8957 3.2832 0.8782 -2.6299 2.1725 1.5784 -1.2183 0.5015 -1.2080 0.6790 2.5092 -0.0411 -1.5462 2.0709 -0.2517 0.5062 0.9391 0.7751 -0.4753 1.4177 -1.7575 1.5696 -3.2820 1.7826 -2.5061 1.0773
-0.9985 0.2373 -3.2031 -2.8827 1.4878 -3.5055 2.8600 -3.3798 1.1063 0.6019 2.1852 -0.8464 -0.7558 2.6481 -1.3223 0.5426 1.7641 0.6020 -0.8228 2.5425 -2.8274 -0.8954 -1.0206 2.9486 0.8769 -2.6997 2.2074 1.8460 -1.2826 0.6780 -1.3759 0.5072 2.0335 -0.0414 -1.6569 1.8960 -0.0793 0.3934 0.7246 0.8526 -0.5616 1.4061 -1.7028 1.3942 -3.2035 1.9745 -2.5587 1.3057
-0.9432 1.0335 -4.3668 -0.8804 3.3119 -4.4796 3.3157 -2.9043 0.7858 -1.1868 0.9279 -0.8283 -1.2272 2.2810 -1.4917 -0.6797 1.0678 0.5851 -2.1076 2.2130 -2.7162 -0.0063 -1.1328 3.7744 1.8214 -2.4450 2.5677 1.5186 -1.3786 0.5532 -1.2939 -0.0868 2.9655 0.5414 -1.8203 2.5611 -0.6836 -0.2911 1.2394 0.7127 -0.7395 1.5416 -1.2453 2.2809 -3.9352 2.3442 -2.3177 1.2441
-2.2430 1.4007 -3.5281 -0.1250 1.6777 -4.3317 3.1636 -2.6107 0.4133 -0.8760 1.7002 0.0404 -0.0524 1.8165 -1.2188 -1.6407 0.3943 0.0430 -0.7720 2.6746 -2.2321 0.1130 -0.5450 3.4957 1.9325 -1.8780 2.3000 1.0711 -1.5221 0.1977 -1.5118 -0.0474 2.7737 0.5684 -1.4839 2.4199 -1.1628 -0.6224 1.0563 0.3274 -0.7512 1.1385 -0.9737 1.8697 -3.4747 2.1814 -2.0731 0.9069
0.0292 3.3760 -2.5080 -2.2170 3.6898 -2.7620 3.8048 -0.9162 2.1882 -0.3967 -0.0851 -1.5005 -1.6003 0.6997 -1.9598 -0.8071 -1.4917 -1.1315 -1.2351 1.5243 -3.1710 -0.9588 -0.7660 2.7733 1.5805 -0.8612 3.0011 1.9470 -1.3487 0.7841 -1.9418 -1.4286 1.3584 0.3732 -1.3618 2.4321 -0.5049 -1.8895 0.2971 0.5597 -1.0816 0.9749 -1.2314 2.9689 -2.7896 2.5988 -1.0280 2.0133
-2.1896 3.1675 -3.3716 0.0703 3.4152 -3.5608 3.2459 -0.8094 0.3630 -1.2321 0.0012 -0.9903 -0.3662 1.0095 -1.7032 -0.9030 0.0238 0.4817 -0.8874 1.2471 -3.0992 -0.1879 -0.6959 3.4882 1.9617 -0.9095 2.3238 1.1858 -1.9278 0.4452 -1.8060 -1.0242 2.7494 0.7614 -1.5979 2.7297 -1.1330 -1.3387 1.1004 0.1424 -2.1036 1.4293 -0.9126 2.7186 -3.3596 2.2502 -1.1759 0.9739
0.0988 2.7836 -4.0415 -1.7271 3.6497 -2.9805 3.8156 -1.1647 1.1910 -1.5812 0.5695 -0.4797 -0.5744 1.0976 -1.4727 -1.5962 -0.9437 -0.4989 -1.2286 1.2968 -2.8192 -0.4806 -0.9633 3.3319 1.9812 -1.1875 2.6899 1.5760 -1.2389 0.4270 -1.9192 -1.3148 2.2280 0.6134 -1.5233 2.4739 -0.9387 -1.6034 0.6931 0.3534 -0.9709 1.1086 -1.0042 2.7058 -3.2595 2.6117 -1.1926 1.4085
-0.1064 2.3152 -4.2690 -0.9612 0.3357 -3.5202 3.1410 -2.7517 0.3176 -1.6826 1.7523 -0.2681 -1.0873 2.6512 -1.3227 -0.6344 1.4232 0.7659 -1.7851 2.4245 -2.6425 -0.1299 -1.3089 3.5198 1.6321 -2.5161 2.1270 1.4319 -1.1112 0.3180 -1.3739 -0.1080 2.8766 0.3882 -1.8266 2.2133 -0.7325 -0.0340 1.1464 0.6323 -0.6049 1.3853 -0.9222 1.5565 -3.4993 2.1898 -2.1974 0.8520
-0.5534 2.9378 -0.9858 -1.5124 3.5440 -2.9669 3.6087 -1.1183 2.4701 0.0797 -0.2959 -1.9356 -0.8643 0.4145 -2.8773 -0.5326 -1.5850 -1.4347 -1.8054 1.3106 -2.1060 -1.0814 -0.1250 2.2210 1.3419 -0.5686 2.8806 1.9117 -1.5174 0.8653 -1.9723 -0.8963 0.8007 0.1527 -0.9750 2.2089 -0.5101 -1.7529 0.0704 0.5828 -1.0085 0.7768 -1.2832 2.7096 -2.1048 2.4376 -1.0738 2.1173
-1.4690 3.6366 -2.9517 0.5843 2.6410 -2.9870 3.3612 -0.5988 0.4443 -0.5972 0.1636 -0.6185 -1.6309 1.1069 -1.1846 -1.1643 -1.2353 -0.5265 -1.4012 1.3131 -2.6637 -0.5295 -0.1236 2.7113 1.8283 -0.4693 2.2123 1.4290 -1.9228 0.5124 -1.9786 -1.0080 2.0989 0.5952 -1.1288 2.5750 -1.0535 -1.8960 0.8314 0.3284 -2.0964 1.4241 -0.6304 2.5763 -2.8725 2.3282 -0.9585 0.9948
-1.1853 3.1985 -4.1171 0.2672 3.2711 -2.3606 3.6851 -1.1369 0.8173 -1.4895 -0.6454 -1.4889 -0.6463 0.5231 -1.9311 -1.8918 -0.4704 -0.0456 -1.5314 1.6498 -2.4063 -0.3084 -0.8543 3.4478 2.0399 -1.1658 2.5154 1.3665 -1.1469 0.3178 -1.8830 -1.1424 2.5368 0.6414 -1.4482 2.4583 -1.1272 -1.4013 0.8655 0.2427 -0.8518 1.1467 -0.6938 2.7737 -2.9267 2.5139 -1.1529 1.1706
-0.8613 3.5915 -2.8251 -0.0129 2.0013 -4.2254 3.5686 -1.0509 0.3946 -1.9282 0.5013 -0.3427 -1.5389 0.6810 -1.7891 -2.1109 -0.9700 -0.0471 -0.2947 1.5314 -1.8766 -0.1520 -0.6575 3.4074 2.1090 -0.9417 2.2583 1.2163 -1.2040 0.1550 -1.7944 -1.0890 2.6832 0.7340 -1.2960 2.3810 -1.1754 -1.5266 1.0032 0.1694 -0.8699 1.0633 -0.3705 2.3630 -3.1145 2.4421 -1.0640 0.8745
0.1504 2.8733 -3.5784 0.2272 0.6416 -3.1084 3.3828 -2.2235 0.3331 -2.2211 1.0462 -0.6038 -2.0285 2.2646 -1.4732 -1.2040 1.0605 0.5111 -1.8494 1.8515 -2.9152 -0.0808 -1.1986 3.4916 1.8835 -2.1345 2.1641 1.3515 -1.0092 0.2308 -1.5679 -0.3710 2.7789 0.5175 -1.7320 2.2258 -0.9846 -0.3408 1.0267 0.4741 -0.5818 1.2704 -0.3902 1.6921 -3.1971 2.3396 -1.8383 0.8438
0.1446 3.0025 -3.3900 0.5831 0.8328 -2.8338 3.4098 -1.9262 0.2450 -2.3206 0.7641 -0.7355 -2.1533 1.9977 -1.5879 -1.4755 0.9023 0.5067 -1.6935 1.6131 -2.9741 -0.0595 -1.1997 3.4776 1.9489 -1.9654 2.1078 1.2742 -0.9020 0.1842 -1.6350 -0.5237 2.7955 0.5544 -1.6870 2.2009 -1.0998 -0.4621 1.0291 0.3812 -0.5532 1.2401 -0.2062 1.7416 -3.0430 2.3469 -1.6348 0.7774
0.5856 2.5897 -1.5018 -1.1552 3.3953 -2.7401 3.6442 -0.4267 1.5716 -0.5216 -0.7907 -1.9827 -1.4973 0.2956 -2.3677 -1.2079 -1.8389 -1.1381 -1.4384 1.4298 -1.3707 -1.0674 -0.2332 2.4741 1.4823 -0.2174 2.5177 1.7082 -1.2157 0.4594 -2.1190 -1.2493 1.3489 0.2587 -0.8657 2.1822 -0.7475 -1.9098 0.3033 0.3274 -0.9391 0.6896 -0.6860 2.5734 -1.9679 2.4338 -0.5972 1.5224
-0.5032 3.4307 -2.9666 0.5601 2.3675 -1.2497 3.5749 -0.6508 0.6921 -1.8032 -0.5803 -1.6550 -1.9035 0.7006 -2.4460 -1.9865 -0.2777 -0.1878 -0.5429 1.0910 -2.9733 -0.4264 -1.1143 3.2932 1.9382 -1.0886 2.3471 1.2646 -0.7334 0.1781 -1.9811 -1.2924 2.3148 0.5663 -1.4586 2.2246 -1.1952 -1.2564 0.6449 0.1265 -0.6680 1.0338 -0.0974 2.3370 -2.2788 2.4087 -0.8063 1.0288
-1.4354 2.9684 -1.1287 0.7947 2.7433 -1.5578 3.6291 -0.7175 1.2948 -1.7317 -0.4655 -1.6584 -0.5448 0.0846 -2.4116 -1.4015 -1.8134 -1.0584 -0.8290 1.5031 -2.8458 -0.9721 0.0105 2.4763 1.5667 -0.2363 2.3583 1.5529 -1.3478 0.3448 -2.1944 -0.9519 1.4809 0.2636 -0.7627 2.1292 -0.9628 -1.7889 0.3904 0.2269 -0.9140 0.6413 -0.3686 2.4513 -1.7848 2.4064 -0.7632 1.3296
-1.1169 0.2270 -3.2967 0.8571 1.3688 -3.4039 2.7987 -2.2693 -0.3779 -1.5042 1.9545 0.2930 -0.4140 2.1288 -0.7366 -2.0740 0.5517 0.2672 -0.9929 2.2465 -2.1265 0.3144 -0.4767 3.3225 1.9108 -1.6906 1.7410 0.6938 -1.2125 -0.1501 -1.4236 0.0120 2.9289 0.5869 -1.3305 2.1227 -1.3716 -0.4582 1.1471 0.1120 -0.5240 0.9549 -0.2905 1.2594 -3.0017 1.9140 -1.7870 0.3160
0.2390 2.5304 -0.7858 0.9941 2.1570 -2.9074 3.5121 -0.5503 0.4888 -2.2459 -0.1323 -1.0243 -1.4107 0.2263 -2.2308 -1.9683 -1.5558 -0.5992 -1.3120 1.7287 -2.3411 -0.6326 -0.1440 2.8848 1.7914 -0.2691 2.0893 1.2662 -1.1410 0.0301 -2.0622 -1.0340 2.1272 0.4795 -0.8213 2.1437 -1.1467 -1.6939 0.6659 0.0580 -0.8040 0.7091 0.0989 2.1426 -2.0761 2.3393 -0.6393 0.8257

>  <OB_ATOM_TYPES> (1stpA1)
O.co2 O.co2 O.2 C.3 C.3 C.3 C.3 C.3 N.am N.am S.3 C.3 C.3 C.3 C.2 C.2

>  <ENSEMBLE_RMSD> (1stpA1)
0.000 0.754 0.810 0.848 0.873 0.980 1.000 1.021 1.044 1.070 1.081 1.145 1.167 1.214 1.223 1.228 1.256 1.263 1.291 1.295 1.321 1.342 1.352 1.359 1.362 1.386 1.413 1.424 1.455 1.459 1.461 1.473 1.577 1.588 1.595 1.641 1.661 1.722 1.755 1.804 1.812 1.872 1.892 1.919 2.020 2.144 2.174 2.207 2.226 2.401

$$$$
