
 OpenBabel03071213D

 21 22  0  0  0  0  0  0  0  0999 V2000
   17.8100   47.8700  -57.6300 O   0  0  0  0  0
   14.9400   50.7500  -60.2400 O   0  0  0  0  0
   15.0700   53.0200  -59.5700 O   0  0  0  0  0
   16.1900   49.6800  -50.9700 F   0  0  0  0  0
   13.7400   47.4500  -55.1900 O   0  0  0  0  0
   14.4100   47.4400  -50.6700 O   0  0  0  0  0
   16.3600   52.1700  -61.4700 O   0  0  0  0  0
   16.5500   51.4900  -57.8100 C   0  0  0  0  0
   15.6200   48.5700  -56.9000 C   0  0  0  0  0
   14.1200   47.4500  -52.9000 N   0  0  0  0  0
   16.7600   51.5900  -59.2500 O   0  0  0  0  0
   16.9600   50.2400  -55.7600 O   0  0  0  0  0
   15.7400   49.6600  -53.2200 C   0  0  0  0  0
   16.8000   48.8600  -57.8300 C   0  0  0  0  0
   17.2800   50.2600  -57.2200 C   0  0  0  0  0
   15.8000   49.3800  -55.6200 C   0  0  0  0  0
   15.1800   49.0700  -54.3000 N   0  0  0  0  0
   14.3300   47.9500  -54.2000 C   0  0  0  0  0
   15.5400   49.1600  -51.9600 C   0  0  0  0  0
   14.6900   47.9900  -51.7500 C   0  0  0  0  0
   15.7200   51.9300  -60.2500 P   0  0  0  0  0
  1 14  1  0  0  0
  2 21  1  0  0  0
  3 21  1  0  0  0
  4 19  1  0  0  0
  5 18  2  0  0  0
  6 20  2  0  0  0
  7 21  2  0  0  0
  8 11  1  0  0  0
  8 15  1  0  0  0
  9 14  1  0  0  0
  9 16  1  0  0  0
 10 18  1  0  0  0
 10 20  1  0  0  0
 11 21  1  0  0  0
 12 15  1  0  0  0
 12 16  1  0  0  0
 13 17  1  0  0  0
 13 19  2  0  0  0
 14 15  1  0  0  0
 16 17  1  0  0  0
 17 18  1  0  0  0
 19 20  1  0  0  0
M  END
>  <MOLID> (1tdbA1)
1tdbA1

>  <SMILES_CANONICAL> (1tdbA1)
O[C@H]1C[C@H](O[C@@H]1COP(=O)(O)O)n1cc(F)c(=O)[nH]c1=O	

>  <FINGERPRINT> (1tdbA1)
0000000000000000000000000000001000000001010000000000000000000000000000000001010000000001000100001000011100000001000011100000000000000000000110000000000001100100000000000000000001000001111000000000000000000000010001000000000000000000000000000000000000000000000001100000000001000001000000001000000110000000000000001011000000001100000000000000000000001100010000000000000110000000000000000000000000000000100100000000000000000011110010100001000100110000000000001010101000010000100000000000000000011100100010100000110000000000001010100000000000100000000100000000000011000000000000000000100111000000000000000000000000000000000000000101000000000011100000000000100000000000001000000001010000000000000010000001000000100101100000000000000001000001000010000011000000000000000100000001000000000100000001000000000011000000000000000000000000000010001011100000000000000010000000000001000000000101000010000110001000000000000000000100001000000000000000010100011100000000000101000100000101101000000100000000000000000000000000001000001010000000

>  <MACCS166> (1tdbA1)
000000000000000000000000000010000000100001101001000000001000010010000001001110010010101011110001111001010110011110001001110101111111110111110111010101111111111010111000

>  <OB_MW> (1tdbA1)
326.032

>  <OB_logP> (1tdbA1)
-1.5666

>  <OB_PSA> (1tdbA1)
160.89

>  <OB_MR> (1tdbA1)
63.9756

>  <OB_ATOMIC_CHARGES> (1tdbA1)
-0.2202897678 -0.1145334248 -0.1145334248 -0.1974755757 -0.2442819095 -0.2625208979 -0.2223850066 0.1857931 0.0894711421 -0.1511117824 -0.2675421582 -0.3325563891 0.1165075312 0.1859426893 0.1776109715 0.2108197102 -0.2532427744 0.3546333593 0.2149657855 0.3120568972 0.532671925

>  <MCT_HBD> (1tdbA1)
4

>  <MCT_HBA> (1tdbA1)
10

>  <ENSEMBLE_TOTAL> (1tdbA1)
48

>  <ENSEMBLE_COORDS> (1tdbA1)
2.7743 -1.2004 -1.6078 -0.5364 1.9066 -5.4614 -1.0444 3.3071 -3.3136 0.9889 0.1840 4.4286 -2.4689 -2.3698 1.1462 -1.0347 -1.3470 5.4201 1.1840 3.3664 -4.4235 1.3112 1.5861 -2.0133 0.7260 -1.7624 -0.5008 -1.7693 -1.8341 3.2744 0.6007 1.2690 -3.1987 -0.1314 0.4714 -0.4229 0.2551 -0.3425 2.2635 1.3942 -0.9080 -1.5428 1.1752 0.4782 -0.9974 -0.4150 -0.8789 -0.0264 -0.6179 -0.9795 1.4082 -1.6802 -1.7680 1.8775 0.1370 -0.4293 3.5877 -0.9318 -1.2347 4.2037 0.0835 2.4856 -4.1015
1.7877 -0.8036 -2.4803 -0.4494 0.7155 -4.9347 -0.7863 3.3128 -4.9768 0.8129 -1.2076 5.4153 -1.9392 -1.0940 0.7579 -1.7160 -2.1924 5.2424 1.4023 2.2684 -5.5046 -0.1432 1.6896 -2.1241 1.1092 -1.2371 -0.2244 -1.8396 -1.5998 3.0015 0.7120 2.2319 -3.1200 0.1625 0.9212 0.1404 0.7036 -0.6800 3.1315 0.7615 -0.5717 -1.5345 0.7145 0.8933 -1.1751 0.7961 -0.1700 0.8087 0.0262 -0.6480 1.9349 -1.2955 -1.1014 1.8084 0.1517 -1.1576 4.2450 -1.2162 -1.7007 4.2370 0.2451 2.1313 -4.6483
1.8450 -0.6409 -2.2189 0.1849 0.9304 -4.8336 -0.2409 3.5085 -4.6730 1.2566 -0.0797 4.4845 -2.4990 -2.4967 1.4347 -0.5475 -1.8092 5.5683 2.0186 2.5802 -5.1264 0.0805 2.0263 -1.9234 0.2386 -1.4200 -0.6299 -1.5135 -2.1641 3.4894 1.1540 2.2973 -2.8103 -0.5940 0.7349 -0.0345 0.2369 -0.4068 2.3974 0.5375 -0.4333 -1.7241 0.4529 0.8888 -1.0016 -0.7858 -0.6682 0.1934 -0.7213 -0.9989 1.6041 -1.6430 -1.9272 2.1143 0.3316 -0.6630 3.7014 -0.6003 -1.5924 4.3630 0.8082 2.3341 -4.3749
2.7843 -0.8345 -1.7641 -0.4884 2.1769 -5.3243 -0.2474 4.3928 -3.9608 0.9322 0.3442 4.4625 -2.2653 -2.6922 1.3325 -1.1560 -1.0569 5.5103 1.6854 2.8776 -4.3331 0.1061 0.6861 -2.7374 1.1751 -1.7459 -0.2496 -1.7048 -1.8830 3.4144 -0.0561 2.0945 -2.7313 -0.4104 0.0140 -0.5055 0.3330 -0.4525 2.3382 1.4034 -1.0610 -1.5672 0.6770 0.2529 -1.4076 -0.2148 -1.2658 0.1024 -0.4729 -1.2180 1.5244 -1.5344 -1.9844 2.0281 0.1471 -0.3931 3.6566 -0.9528 -1.1300 4.3037 0.2598 2.8782 -4.0922
2.7260 -0.0086 -1.6449 -0.9949 2.5117 -5.1611 0.2933 3.7937 -3.2734 0.9301 0.0833 4.6987 -2.3131 -2.5021 1.2292 -1.2149 -1.3541 5.5684 1.4570 2.8920 -5.2738 -0.2722 0.7403 -2.6808 1.3971 -1.2751 -0.1147 -1.7851 -1.8955 3.3867 0.6856 1.2221 -3.6087 -0.5996 -0.0235 -0.4472 0.3860 -0.5343 2.5015 1.4555 -0.6000 -1.4563 0.3969 0.4736 -1.3496 -0.0815 -1.1919 0.1951 -0.4177 -1.1993 1.6021 -1.5613 -1.9077 2.0041 0.1378 -0.5439 3.8109 -1.0077 -1.2891 4.3620 0.3827 2.6087 -4.3482
3.4514 -0.6551 -1.1923 -1.3663 2.6837 -2.6471 0.3082 3.4292 -4.5193 0.8358 -0.4332 4.5875 -2.4807 -1.7981 0.5388 -1.6721 -1.3811 5.0713 -1.1285 1.4185 -4.7717 1.5150 1.7416 -2.0839 1.3770 -1.5347 -0.3834 -2.0762 -1.5850 2.7961 0.7581 1.2289 -3.1696 0.2020 0.5478 -0.4531 0.4147 -0.6423 2.2881 2.0487 -0.6058 -1.3566 1.5279 0.7474 -0.9448 0.0576 -0.8368 -0.1198 -0.4135 -0.9876 1.2424 -1.7110 -1.4800 1.4476 0.0327 -0.7626 3.5593 -1.3075 -1.2668 3.9066 -0.3731 2.1721 -3.7961
1.8029 -0.8954 -2.6073 -1.0914 0.3222 -3.8301 -1.4320 2.9087 -4.0314 0.1930 -1.7921 5.2203 -1.4105 -0.0998 0.3437 -2.4277 -1.6563 4.5702 0.1336 1.6747 -5.5063 0.5668 1.9175 -1.7541 1.5553 -1.2924 -0.2529 -1.9110 -0.9103 2.4356 0.8509 1.9655 -3.1398 1.2529 1.0102 0.3400 0.7209 -1.0649 3.0539 1.1130 -0.4975 -1.4440 1.4752 0.9172 -1.0734 1.4295 -0.2983 0.8955 0.3392 -0.6347 1.8009 -1.0150 -0.5180 1.4334 -0.1673 -1.4134 3.9826 -1.6113 -1.3593 3.7143 -0.3671 1.7165 -4.1513
1.8643 -0.5816 -2.4731 -1.0004 2.9776 -5.1311 1.5578 2.5295 -5.4058 0.5382 -0.7582 5.4929 -1.6656 -1.6381 0.6296 -1.6858 -2.3074 5.2055 -0.0271 0.7064 -4.8322 -0.3378 1.6678 -2.1102 1.2488 -1.1005 -0.2189 -1.6849 -1.9481 2.9118 0.4593 2.3888 -3.0389 0.0332 0.9184 0.1508 0.5667 -0.4692 3.1664 0.8186 -0.4796 -1.5264 0.5963 0.9658 -1.1593 0.7753 -0.1019 0.8216 0.0302 -0.6828 1.9179 -1.1421 -1.4300 1.7253 0.0133 -0.9638 4.2718 -1.1952 -1.8021 4.2026 0.2370 2.1090 -4.6003
3.5747 -0.9516 -1.2837 -1.6309 1.9175 -2.5335 -0.5472 4.1830 -3.2503 0.6859 0.2191 4.3579 -2.3216 -2.2155 0.5803 -1.8202 -0.6891 4.9142 -0.4596 2.1795 -4.7140 1.3354 0.7695 -2.7671 1.6316 -1.8253 -0.1906 -2.0728 -1.4493 2.7376 0.9815 2.1404 -2.6728 0.1680 -0.0581 -0.8488 0.4125 -0.5360 2.1530 2.1791 -1.1311 -1.4065 1.4731 0.2011 -1.3745 0.2078 -1.3078 -0.1536 -0.3353 -1.1606 1.1793 -1.6248 -1.6531 1.4263 -0.0399 -0.3794 3.3967 -1.3859 -0.8413 3.7778 -0.4114 2.5880 -3.3279
2.6925 -1.6599 -1.7529 1.0673 3.5694 -4.3209 -1.1512 2.2624 -4.7673 0.7859 0.4857 4.3117 -2.2679 -2.5462 1.0363 -1.1652 -1.1441 5.2998 -0.6420 3.2357 -2.5388 1.6535 1.2978 -2.1947 0.5984 -1.8874 -0.6169 -1.7082 -1.8519 3.1592 0.6734 1.2240 -3.2175 0.1064 0.4512 -0.5333 0.1671 -0.1783 2.1493 1.3759 -1.1547 -1.6739 1.3848 0.2520 -1.1386 -0.3912 -0.8383 -0.1420 -0.6106 -0.9269 1.2928 -1.5815 -1.8261 1.7641 0.0287 -0.2435 3.4726 -0.9915 -1.1107 4.0869 -0.0245 2.5898 -3.6757
3.0255 0.3402 -1.3930 -1.1518 3.5808 -4.5983 1.1776 3.3915 -3.4296 0.7860 -0.0161 4.7761 -2.2044 -2.3398 0.9158 -1.6023 -1.1909 5.3516 0.5310 1.9019 -5.3163 0.1595 0.3262 -2.8659 1.7774 -1.1020 0.0566 -1.9177 -1.7341 3.1191 -0.6005 1.4955 -3.1192 -0.3608 -0.3128 -0.6285 0.4904 -0.6386 2.5337 1.8875 -0.4931 -1.3125 0.6318 0.3345 -1.4305 0.2808 -1.2984 0.1878 -0.2441 -1.2418 1.5374 -1.5050 -1.8116 1.7828 0.0591 -0.5764 3.7926 -1.2246 -1.1821 4.1857 0.0045 2.5673 -4.1452
2.5024 -1.6967 -2.3602 -1.2301 3.7919 -3.3882 1.2209 2.9628 -3.0253 -0.2743 0.4984 5.0183 -0.9260 -2.3016 0.4359 -2.1752 -1.4299 4.8000 -0.1068 2.3013 -5.0250 -0.0427 0.0736 -2.8996 1.8981 -1.3323 -0.0678 -1.5208 -1.8867 2.6192 -0.7893 1.2796 -2.8513 0.2962 0.3823 -0.5186 0.3477 0.0654 2.7969 1.4272 -1.3875 -1.5000 0.9307 0.0119 -1.7433 1.0656 -0.2112 0.5309 0.2017 -0.6319 1.6185 -0.7511 -1.6550 1.4691 -0.4052 -0.1849 3.8669 -1.4510 -1.2187 3.8326 -0.2182 2.5690 -3.6089
2.0394 -1.9047 -2.3301 1.0765 2.5221 -5.0582 -1.3435 1.5478 -4.8280 0.3926 -0.8241 5.4006 -1.5524 -0.9298 0.3550 -2.2330 -1.3367 4.9074 -0.7692 3.8278 -4.0288 0.0295 0.5521 -2.4490 1.6947 -1.5931 0.0204 -1.8764 -1.1577 2.6191 0.1357 1.9463 -2.6825 0.7603 0.6049 -0.1718 0.7336 -0.6153 3.0888 1.1579 -1.3679 -1.3652 1.1052 0.1343 -1.4790 1.2555 -0.3506 0.7713 0.2641 -0.6342 1.7952 -1.0806 -0.9084 1.4926 -0.0574 -0.8548 4.1333 -1.4897 -1.1441 3.9516 -0.2427 2.4860 -4.1426
2.9960 -0.9066 -1.6062 -0.4842 4.4210 -3.6253 1.6285 3.1161 -4.4384 0.3929 0.7510 4.3119 -1.8972 -3.0978 1.2820 -1.3562 -1.0387 5.3839 -0.6768 2.3575 -4.9925 0.4877 0.7181 -2.7392 1.2737 -1.8147 -0.2181 -1.6065 -2.0840 3.3291 0.0550 2.0638 -2.6224 -0.3107 -0.0765 -0.6218 0.1115 -0.2967 2.2306 1.6027 -1.1210 -1.5094 0.8765 0.1957 -1.3764 -0.1399 -1.3379 0.0328 -0.4702 -1.2638 1.4400 -1.3629 -2.2149 1.9562 -0.1484 -0.2040 3.5347 -1.0823 -1.1342 4.1929 0.1109 2.9676 -3.9446
1.6249 -0.7394 -2.5315 1.5552 1.4541 -5.3924 -0.6903 0.4875 -4.4718 0.7953 -1.9156 5.1947 -1.9663 -0.2754 0.8417 -1.9195 -2.0644 5.1025 -0.5047 2.8323 -5.2782 -0.1113 1.8758 -1.9956 1.1219 -1.1230 -0.2309 -1.9375 -1.1374 2.9746 0.6245 2.3401 -3.1172 0.4118 1.1120 0.2228 0.7600 -0.9638 3.0507 0.7082 -0.4282 -1.5003 0.8099 1.0339 -1.1470 0.9237 -0.0708 0.8426 0.0830 -0.5349 1.9316 -1.3149 -0.6142 1.8312 0.1344 -1.4749 4.1093 -1.3310 -1.5955 4.1350 0.2227 1.8015 -4.5716
2.6315 -1.8149 -2.2463 -1.0476 4.0279 -3.3433 0.5302 2.7338 -4.9755 -0.1348 -0.0354 5.2180 -1.1593 -1.7834 0.2025 -2.4521 -1.3373 4.6149 -1.6555 1.7924 -4.2391 0.4621 0.4820 -2.6258 1.9088 -1.6303 0.0293 -1.7860 -1.5769 2.4057 0.1689 1.8670 -2.5309 0.8243 0.4815 -0.2513 0.5278 -0.2948 2.9832 1.5643 -1.3965 -1.4194 1.3975 0.0993 -1.5025 1.3297 -0.4188 0.7349 0.2955 -0.7368 1.7013 -0.8915 -1.3959 1.3410 -0.3537 -0.4743 3.9656 -1.6310 -1.1652 3.7212 -0.5292 2.5765 -3.7837
3.3811 -0.1617 -1.1504 -0.8327 4.1043 -3.9889 1.0148 2.6527 -5.1336 0.8486 -0.3763 4.7856 -2.3940 -1.9126 0.7424 -1.7657 -0.9789 5.2261 -1.2713 1.7637 -4.6999 0.6327 0.7277 -2.6277 1.7667 -1.4795 0.0194 -2.0574 -1.5317 2.9879 0.2065 2.0746 -2.7065 -0.0931 -0.0929 -0.5224 0.5417 -0.9236 2.5240 2.0749 -0.6963 -1.2272 1.0517 0.4126 -1.2126 0.2635 -1.3198 0.1279 -0.2622 -1.3231 1.4794 -1.6216 -1.6262 1.6609 0.0835 -0.8143 3.7697 -1.3218 -1.1174 4.0903 -0.2458 2.6190 -4.1444
-0.1927 -1.4783 -2.9869 -0.1480 2.7335 -5.5869 -0.3210 4.0283 -3.3243 -1.0416 1.2465 4.0659 0.2478 -3.5438 1.9170 -1.5832 -1.0835 5.3699 1.8656 3.2521 -4.2297 0.5076 1.4722 -1.9401 -0.0332 -1.9448 -0.6565 -0.6830 -2.3124 3.6217 0.3495 1.4835 -3.3502 1.0980 0.0760 -0.0881 -0.1898 -0.0140 2.2797 -0.2800 -0.8929 -1.7011 0.8610 0.0707 -1.4976 0.7992 -1.2400 0.4001 0.1376 -1.2207 1.6993 -0.0716 -2.4419 2.3679 -0.7411 0.0688 3.4899 -1.0536 -1.1425 4.2661 0.4724 2.8831 -4.1162
2.4098 -0.0301 -1.8645 1.7839 2.9606 -5.2835 0.7578 0.5895 -4.8984 1.4246 -1.0459 4.6608 -2.8269 -1.4820 1.3486 -1.0268 -1.7829 5.5935 -0.6651 2.6264 -5.0463 -0.2723 1.7460 -2.1622 0.9667 -1.1710 -0.3293 -1.9323 -1.6047 3.4664 0.7048 2.3789 -2.9734 -0.5872 0.6141 -0.0864 0.5010 -0.8879 2.5097 1.0587 -0.2652 -1.5255 0.4132 1.0090 -1.0342 -0.3788 -0.7655 0.2324 -0.5662 -1.0024 1.6467 -1.8479 -1.3680 2.0887 0.3827 -1.1322 3.8145 -0.9085 -1.5351 4.3990 0.6088 2.1484 -4.5567
3.8122 -0.2530 -0.9277 -1.7385 1.2010 -2.8631 -1.2371 3.5965 -3.7782 0.5238 -1.9503 4.6793 -2.2064 -0.1663 0.3720 -1.9773 -0.9128 4.9193 -0.5006 1.5584 -4.9911 1.4062 0.8748 -2.7563 1.9457 -1.3612 0.0571 -2.0623 -0.4788 2.6432 0.7233 2.1115 -2.8834 0.3153 0.1586 -0.7561 0.4557 -1.4337 2.3921 2.4803 -0.6662 -1.1602 1.5838 0.5377 -1.2933 0.4583 -1.0646 -0.0194 -0.2012 -0.9552 1.2768 -1.5325 -0.5039 1.3460 -0.1082 -1.4630 3.5973 -1.4617 -0.9278 3.8073 -0.6789 2.0983 -3.6617
1.9459 -1.5630 -2.4169 0.3087 2.7886 -5.0966 0.4327 4.5884 -3.2066 -0.0316 1.3407 3.9248 -1.1628 -3.4679 1.7269 -0.4614 -0.8585 5.4736 2.1087 2.7631 -3.3756 -0.1952 0.7273 -2.8655 0.4805 -2.0851 -0.5977 -0.8000 -2.1653 3.5883 -0.1732 2.1210 -2.6009 -0.7513 -0.0475 -0.6612 -0.3319 -0.0038 2.0247 0.6194 -1.4410 -1.9483 0.2942 -0.0033 -1.6388 -0.6943 -1.3259 -0.0104 -0.6140 -1.2188 1.4381 -0.8809 -2.3672 2.2048 -0.2819 0.1519 3.3474 -0.5158 -0.9838 4.2555 0.7043 3.0501 -3.5657
3.3374 -1.0384 -1.3901 0.1715 4.2825 -3.8317 -0.5396 2.0528 -4.9956 0.8380 0.1984 4.4166 -2.4175 -2.2416 0.8532 -1.5844 -0.7990 5.1641 -1.3776 2.6780 -2.7357 0.9726 0.5835 -2.8381 1.4508 -1.8596 -0.1751 -2.0066 -1.5063 2.9977 1.0159 1.9995 -2.8789 -0.0024 -0.0570 -0.7544 0.4024 -0.5283 2.2285 1.9363 -1.2113 -1.4405 1.2487 0.1311 -1.4251 0.0465 -1.3057 -0.0581 -0.4095 -1.1531 1.3069 -1.6654 -1.6755 1.6491 0.0431 -0.3903 3.5045 -1.2488 -0.9054 3.9906 -0.2115 2.7458 -3.5878
2.2220 -0.6369 -2.0195 1.3430 3.6692 -2.7595 1.9148 2.8484 -5.1728 0.5138 0.7830 4.2558 -1.8565 -3.2444 1.5355 -0.6944 -1.2839 5.5560 -0.4086 3.4281 -4.5145 -0.4619 1.0753 -2.5953 0.7482 -1.6601 -0.4472 -1.2964 -2.2526 3.5370 0.5298 1.3138 -3.5799 -0.8976 0.0644 -0.4825 -0.0789 -0.2205 2.2204 0.8604 -0.8786 -1.7251 0.1597 0.4153 -1.3851 -0.6102 -1.2294 0.0616 -0.6835 -1.2325 1.5083 -1.3231 -2.3110 2.1379 -0.0789 -0.1981 3.5524 -0.7098 -1.2781 4.3305 0.8080 2.8283 -4.0141
0.2227 -1.9064 -2.6348 -1.0083 2.7104 -4.8219 1.0776 4.0233 -3.9592 -2.1553 -0.0349 4.8067 1.3007 -2.1027 1.1955 -0.3306 -1.9268 5.5152 1.2907 1.8086 -5.0753 1.4397 1.0784 -2.2885 -0.9357 -1.2237 -0.6591 0.4900 -2.0046 3.3466 0.3262 1.8228 -2.7598 0.5765 0.5468 -0.1084 -1.3158 -0.1212 2.6177 -0.2097 -0.7823 -1.8966 0.9760 -0.0213 -1.3573 -0.6084 -0.1249 0.3303 -0.4454 -0.6299 1.6820 0.5098 -1.6095 2.0015 -1.3017 -0.5215 3.8882 -0.3493 -1.5450 4.3506 0.4504 2.5644 -4.1733
3.1002 -1.5811 -1.7328 0.1654 4.4270 -2.8519 -0.4417 2.6736 -4.6921 0.4009 0.9827 3.9638 -1.9785 -2.9214 1.0763 -1.4337 -0.6893 5.0859 -1.2355 2.4409 -2.3442 1.1286 0.6186 -2.9038 1.1691 -2.0698 -0.4048 -1.7062 -1.8057 3.0720 1.1951 2.0268 -2.7446 0.0110 -0.0408 -0.8873 0.1203 -0.1573 1.9319 1.6934 -1.4704 -1.6797 1.2816 -0.0265 -1.5480 -0.1213 -1.3000 -0.2172 -0.4811 -1.1402 1.1766 -1.4292 -2.0229 1.7168 -0.1753 0.0221 3.2190 -1.1562 -0.8401 3.9016 -0.1069 2.8739 -3.1376
1.6733 -0.8977 -2.4200 1.9259 2.7559 -5.0119 0.1384 3.9799 -3.5505 0.6287 1.0259 3.9860 -1.6957 -3.2824 1.6867 -0.1903 -1.1061 5.4753 1.9746 2.6402 -2.5323 -0.7728 1.1674 -2.6347 0.3107 -1.7641 -0.6660 -0.9607 -2.1874 3.5743 0.1673 1.3580 -3.6798 -1.1432 0.1227 -0.5146 -0.1515 -0.0818 2.0717 0.3435 -0.9851 -1.9494 -0.1473 0.3720 -1.5121 -0.9075 -1.1856 0.0240 -0.7510 -1.1639 1.4659 -1.1804 -2.2845 2.1946 0.0395 -0.0257 3.3888 -0.3710 -1.1380 4.2633 1.0694 2.6804 -3.6592
-0.3567 -1.3015 -2.7728 -0.6936 2.2674 -4.7641 1.3225 3.8503 -4.2258 -1.8831 -0.2595 5.1563 1.1950 -2.0587 1.0876 0.0038 -2.1829 5.5520 1.5669 1.8811 -5.7205 0.6983 1.6705 -2.0454 -1.1911 -1.0798 -0.5425 0.5960 -2.1167 3.3092 1.3043 1.3971 -3.2976 0.2749 0.6924 0.0821 -1.3137 -0.2460 2.8795 -0.7176 -0.3643 -1.7776 0.5077 0.3740 -1.2946 -0.8355 -0.0846 0.5404 -0.5474 -0.6917 1.8265 0.4671 -1.6482 1.9932 -1.1480 -0.7023 4.1203 -0.1401 -1.7331 4.4209 0.8901 2.3368 -4.5270
2.4445 -1.1521 -2.6489 -2.4265 1.9627 -2.8593 -0.4435 2.3885 -4.5086 -0.1223 -1.2251 5.0481 -1.1568 -0.3925 -0.1956 -2.6640 -1.3164 4.0700 -0.8548 0.1495 -3.4990 1.4323 1.8063 -2.1505 1.7732 -1.4302 -0.3629 -1.8998 -0.8296 1.9350 0.0289 1.9127 -1.9701 1.5543 0.9114 0.0982 0.6409 -0.7994 2.8713 1.5939 -0.6526 -1.6394 2.0054 0.7406 -1.2442 1.5901 -0.3784 0.7170 0.4064 -0.5916 1.5314 -0.8912 -0.5852 0.9921 -0.3468 -1.0149 3.7389 -1.7494 -1.0700 3.2928 -0.9149 1.5663 -3.2163
-1.5180 -0.4745 -2.5894 0.7329 1.3616 -6.0727 -0.1667 3.0431 -4.2873 -0.9332 -0.0058 5.4706 0.4542 -2.3385 0.7915 -0.1135 -2.6035 5.3717 2.2701 2.7420 -4.6955 1.1281 1.2765 -2.1697 -1.6241 -0.1993 -0.2135 0.1763 -2.4624 3.0734 1.1067 0.8698 -3.5295 0.6244 0.5534 0.0545 -0.7426 0.0831 3.1344 -1.1066 0.3465 -1.5161 0.3887 0.2620 -1.3291 -0.6041 0.3486 0.7624 -0.4086 -0.4913 1.9294 0.1003 -1.7971 1.8403 -0.6162 -0.5672 4.2900 -0.1654 -1.9688 4.3246 1.0174 2.0219 -4.6401
2.0984 -0.8655 -2.5010 -1.3497 2.7831 -4.2938 -0.4233 0.4872 -5.1318 0.0212 -2.0843 4.9662 -1.2504 0.2593 0.2608 -2.5733 -1.7498 4.1969 -1.5022 0.7213 -2.9076 0.8066 2.0251 -1.7953 1.7557 -1.1502 -0.1576 -1.8954 -0.6997 2.2436 0.7760 1.7407 -3.1821 1.4174 1.1661 0.3318 0.6878 -1.0400 2.9752 1.3349 -0.4156 -1.3992 1.6731 1.0199 -1.0708 1.5506 -0.1229 0.9389 0.3964 -0.4423 1.7695 -0.9273 -0.2457 1.3371 -0.2626 -1.4707 3.8034 -1.6877 -1.3314 3.4601 -0.6462 1.4153 -3.8443
2.5801 -2.0533 -2.4011 -0.5426 2.8483 -4.1765 -2.4668 1.4362 -3.1122 -0.0802 -0.6343 5.0386 -1.1792 -0.6147 -0.2578 -2.6461 -0.7279 4.1203 -0.8321 2.6743 -1.7094 1.4052 0.8630 -2.7712 1.8449 -1.7271 -0.1390 -1.8988 -0.6719 1.9247 0.0094 0.6365 -2.8788 1.4449 0.6236 -0.3622 0.6521 -0.5172 2.8122 1.6646 -1.3528 -1.5857 1.9762 0.1199 -1.5865 1.5733 -0.4286 0.6016 0.4014 -0.5053 1.4590 -0.9011 -0.5946 0.9425 -0.3226 -0.6142 3.7154 -1.7342 -0.6782 3.3027 -0.9487 1.9183 -2.9364
2.2056 -1.3464 -2.4315 0.0613 4.3552 -3.3948 1.3285 3.0111 -1.5500 -0.5791 1.5970 3.4912 -0.6676 -3.5209 1.7482 -0.6457 -0.4932 5.2370 1.6354 2.5225 -3.9719 -0.2593 0.4812 -3.1414 0.7499 -2.0524 -0.6679 -0.6370 -2.0080 3.4815 -0.5570 1.8557 -2.9539 -0.8564 -0.3124 -0.9466 -0.5461 0.0517 1.7255 0.8520 -1.4642 -2.0469 0.2386 -0.1053 -1.8428 -0.5748 -1.4940 -0.1797 -0.5662 -1.2432 1.2538 -0.6263 -2.3473 2.1227 -0.5779 0.3344 3.0273 -0.6213 -0.7375 4.0363 0.6436 2.9160 -2.9960
0.9066 -1.4643 -3.2804 -1.5995 3.2294 -2.0029 0.4466 3.6723 -3.5652 -1.5504 1.5719 2.7946 0.3166 -3.4330 1.9478 -2.3905 -0.5279 4.3133 -0.7849 1.5088 -3.5967 1.8360 1.3203 -2.0224 0.5915 -2.0059 -0.9704 -1.0346 -1.9829 3.1195 0.6407 1.9527 -1.5910 1.8801 -0.1743 -0.1278 -0.2185 0.0806 1.5676 0.6740 -0.9138 -1.9996 1.8704 -0.1167 -1.5529 1.2365 -1.3953 0.2614 0.2743 -1.1845 1.3321 -0.1077 -2.2880 2.1137 -1.0810 0.3351 2.5505 -1.5774 -0.7429 3.4215 -0.3287 2.5585 -2.7128
1.5300 -1.6148 -2.5067 -0.7820 3.4419 -4.3459 1.4197 3.3740 -2.9272 -2.6356 -1.3830 4.5063 1.7899 -0.4725 1.5329 -0.2088 -0.9571 5.6719 1.3839 2.7135 -5.3228 -0.5522 0.8874 -2.6392 0.2185 -1.9894 -0.5430 0.7913 -0.7211 3.5918 0.3161 1.1372 -3.7305 -0.5511 0.2563 -0.3546 -1.5920 -1.2322 2.4118 0.2904 -1.3274 -1.8907 0.2061 0.1451 -1.5643 -0.7010 -1.0502 0.2042 -0.4778 -1.0178 1.6347 0.7773 -0.7209 2.1895 -1.5463 -1.1878 3.7420 -0.2765 -0.9477 4.4482 0.6004 2.6664 -4.1087
0.4303 -1.4962 -3.2344 -1.2126 2.5455 -3.8945 -0.9471 2.0105 -1.3549 -1.6759 1.6764 2.2434 0.4870 -3.2863 2.4200 -2.3308 -0.0969 4.2314 0.3141 3.8550 -2.4392 1.8788 1.1465 -1.9393 0.3113 -2.0649 -0.9267 -0.8904 -1.6794 3.3316 1.0393 1.5388 -3.0114 1.9678 -0.5018 -0.2140 -0.2497 0.0475 1.3563 0.4183 -0.9462 -1.9273 1.7595 -0.3323 -1.6241 1.1603 -1.5990 0.2419 0.3248 -1.2052 1.3715 0.0241 -2.1455 2.3739 -1.1099 0.4585 2.2848 -1.5170 -0.4418 3.3800 -0.1822 2.5168 -2.6690
1.3688 -2.1217 -2.5077 -0.2369 2.7164 -5.0843 0.5046 4.4033 -3.2316 -2.4350 -0.9507 4.5884 1.7679 -0.7381 1.1900 0.0942 -0.4846 5.4880 1.9384 2.4860 -3.8934 -0.2814 0.5738 -2.8594 -0.0328 -2.3020 -0.5756 0.9297 -0.6343 3.3292 -0.1091 1.9528 -2.5742 -0.7339 -0.0168 -0.5790 -1.5733 -1.1106 2.4123 0.1403 -1.7056 -1.9467 0.1740 -0.2263 -1.6629 -0.8691 -1.2524 0.1298 -0.5203 -1.0685 1.5274 0.7971 -0.8128 1.9445 -1.4082 -0.9197 3.7204 -0.0735 -0.6601 4.2864 0.5584 2.8720 -3.7016
-1.2852 -0.6240 -2.9780 0.7073 2.7604 -5.4327 -0.7703 2.9533 -3.2850 -2.3311 0.6083 3.6225 1.6005 -2.7992 2.1496 -0.6920 -0.5444 5.4679 1.5843 3.7599 -3.3342 1.2534 1.0441 -1.9458 -1.1296 -1.5054 -0.7608 0.4404 -1.6920 3.8016 1.2585 1.2869 -3.3427 1.0908 -0.7155 -0.3601 -1.1273 -0.4995 1.9394 -0.8004 -0.3550 -1.6767 0.7074 -0.3371 -1.6829 0.0933 -1.6141 0.1321 -0.1362 -1.3698 1.5420 0.7006 -2.0182 2.4650 -1.3581 -0.2309 3.2244 -0.5244 -0.8218 4.2856 0.7178 2.7141 -3.8310
0.6306 -2.7050 -2.9885 -0.7124 3.2321 -4.1539 -0.7536 2.9807 -1.5468 -2.2360 1.2798 2.6690 1.2719 -2.8296 2.4450 -1.8218 -0.3480 4.8130 1.1181 4.1141 -2.7243 0.2607 0.4402 -2.9205 0.6172 -2.4038 -0.6155 -0.2980 -1.6121 3.6055 1.0060 1.6452 -2.9721 0.9865 -0.0477 -0.6811 -0.6462 0.0287 1.4797 0.2127 -1.8404 -1.9507 0.9722 -0.5421 -2.0218 1.0464 -1.1870 0.1858 0.2565 -1.0099 1.3954 0.4743 -1.8902 2.4704 -1.3650 0.2587 2.5779 -1.2064 -0.5791 3.7786 0.1862 3.0153 -2.8449
-0.3205 -2.3674 -2.7075 2.1008 1.8366 -4.6362 -0.0287 3.3618 -4.5665 -1.7642 -0.0138 4.9372 1.3351 -1.7469 0.8563 0.7149 -1.0596 5.3818 1.9783 3.8501 -3.1862 -0.2521 0.8179 -2.7794 -1.2814 -1.9336 -0.5607 1.0101 -1.4204 3.1097 0.6116 1.9030 -2.4797 -0.5926 0.3520 -0.4504 -1.4541 -0.3989 2.6449 -1.0177 -1.4032 -1.9442 -0.1330 -0.2117 -1.6811 -1.2819 -0.6698 0.2752 -0.6887 -0.8383 1.5896 0.6011 -1.3655 1.7696 -1.0232 -0.4527 3.9042 0.3052 -1.0003 4.2281 1.1812 2.7609 -3.7045
2.9187 -1.7035 -1.9666 -1.8372 1.0351 -4.2210 -1.5704 3.5073 -3.4194 -1.7417 -3.2685 2.3752 0.4707 1.6462 2.8210 -2.6870 -1.4486 4.1687 0.0940 2.4423 -4.9235 0.5739 0.3543 -2.5415 2.2932 -1.2495 0.3025 -1.0931 0.0973 3.4981 0.0895 1.6885 -2.5517 0.9754 0.6771 -0.1953 -0.1533 -1.6858 1.6885 1.8620 -1.2586 -1.1412 1.5590 0.1931 -1.4059 1.5150 -0.0830 0.8906 0.4369 -0.4460 1.7928 -0.0135 0.5180 2.7105 -1.1721 -2.0533 2.4637 -1.7390 -1.1294 3.4605 -0.7811 2.1668 -3.8061
3.3002 -0.7691 -1.6106 -1.2572 2.5844 -2.0880 0.0354 3.9958 -3.8684 -2.1957 -2.6458 3.9305 0.9458 0.9371 1.3718 -1.5606 -0.2625 5.0668 -1.2901 1.9967 -4.5078 0.6430 0.1974 -3.0679 1.7060 -1.7584 -0.1254 -0.2960 0.3322 3.2116 0.8525 1.5832 -3.2924 -0.1766 -0.5326 -0.9442 -0.9771 -2.0087 2.0303 1.9752 -1.2516 -1.5200 1.0010 -0.1080 -1.6375 0.2157 -1.5168 0.0165 -0.1781 -1.1137 1.3546 0.2182 0.1110 1.9239 -1.4157 -1.7767 3.2654 -1.1093 -0.5117 3.9544 -0.4368 2.5177 -3.4635
-0.2184 -1.1038 -3.2196 0.6247 4.0688 -2.4163 0.0308 3.1525 -4.7908 -2.6969 0.5783 2.5805 1.6616 -2.6242 2.6241 -1.6467 -0.3531 4.9183 -1.1310 2.3366 -2.7520 1.5287 1.1929 -1.7398 -0.2116 -1.9701 -0.9944 -0.0003 -1.5069 3.7617 1.2337 1.5988 -3.0651 1.6097 -0.6265 -0.2264 -1.0062 -0.5689 1.4283 -0.0675 -0.7467 -1.8593 1.3499 -0.3007 -1.5952 0.7461 -1.7029 0.1515 0.0999 -1.3906 1.4136 0.6639 -1.9013 2.5928 -1.6160 -0.2221 2.5609 -1.1126 -0.6845 3.8659 0.1583 2.7745 -3.2389
1.2853 -2.6361 -2.9287 -1.2862 2.2972 -1.4343 0.3668 4.2608 -1.9070 -2.7422 0.8349 1.8458 1.5811 -2.2737 2.7981 -2.4326 -0.4723 4.2176 -0.8140 3.0842 -3.7471 0.6795 0.4765 -2.8901 1.0957 -2.3451 -0.5623 -0.4191 -1.3734 3.5009 1.0164 1.8263 -2.6121 1.3724 0.0280 -0.6137 -0.7381 -0.1397 1.1126 0.7381 -1.8076 -1.9211 1.4137 -0.4604 -1.9541 1.3494 -1.1000 0.2667 0.3692 -0.9322 1.3265 0.5918 -1.5788 2.5527 -1.6666 0.0533 2.0480 -1.5666 -0.6075 3.3611 -0.1939 2.8656 -2.4594
-0.0654 -1.5693 -3.3037 1.0856 3.9582 -2.8163 -1.1172 3.0433 -3.8838 -2.6257 0.8038 2.3019 1.6185 -2.5277 2.6741 -1.8176 -0.1959 4.7043 -0.5884 2.6845 -1.4829 1.7210 0.9097 -2.2175 -0.0743 -2.1178 -0.9779 -0.0846 -1.3518 3.6847 0.7519 1.3773 -3.1372 1.6508 -0.5796 -0.3619 -0.8998 -0.4104 1.2772 0.0513 -1.0235 -2.0047 1.4514 -0.5112 -1.7761 0.8576 -1.6635 0.1313 0.1743 -1.2707 1.3482 0.6479 -1.7757 2.5684 -1.5683 -0.0253 2.3634 -1.1902 -0.5144 3.7006 0.0211 2.7603 -2.7922
0.3094 -1.6201 -3.3993 -0.9216 3.1093 -3.8139 -1.1608 1.8167 -1.5554 -2.8025 0.7066 2.0576 1.7030 -2.2155 2.7016 -1.7925 0.1902 4.5318 0.5475 3.5944 -1.8723 1.8916 0.9483 -2.1433 0.0312 -2.0946 -1.0715 -0.0643 -1.0518 3.6119 0.9476 1.4388 -3.0765 1.7253 -0.5752 -0.3325 -1.0023 -0.4835 1.1345 0.2741 -1.0350 -2.1126 1.6343 -0.4915 -1.7554 0.8843 -1.6471 0.1003 0.1420 -1.2378 1.2758 0.6715 -1.5617 2.5347 -1.6847 -0.0304 2.1854 -1.2101 -0.2729 3.5579 -0.1231 2.5128 -2.5587
1.3574 -2.5664 -2.8601 -0.6549 2.8221 -4.2208 -2.0443 2.7469 -2.0091 -3.0967 -1.1576 1.8186 2.0856 -0.0544 2.9025 -2.3500 -0.0699 4.2024 0.3587 3.3751 -2.0142 1.1463 0.5931 -2.7733 1.2097 -2.3254 -0.4787 -0.1232 -0.0803 3.5537 -0.1774 0.9695 -2.4278 1.5827 0.0397 -0.4610 -0.8453 -1.1255 1.1603 0.8899 -1.7279 -1.8241 1.6679 -0.4392 -1.8013 1.4766 -1.1068 0.3913 0.4821 -0.8626 1.4183 0.9109 -0.3188 2.6393 -1.7997 -0.8961 2.0610 -1.4788 -0.3138 3.3754 -0.5976 2.4982 -2.6524
2.7945 -1.9617 -2.3877 -2.5087 1.2000 -2.7325 -0.8786 2.3526 -1.0492 -2.6208 -2.3089 1.3742 1.2267 1.1812 2.8778 -2.9190 -0.7376 3.5803 -0.7876 2.8205 -3.4933 1.4095 0.8945 -2.7273 2.0835 -1.6596 -0.1192 -0.8401 0.2258 3.2221 0.0267 0.5765 -2.7599 1.5865 0.6703 -0.3385 -0.5136 -1.3362 1.0329 1.8532 -1.3051 -1.5644 2.0886 0.1823 -1.5801 1.7045 -0.3861 0.6199 0.4881 -0.4675 1.4065 0.3657 0.3732 2.5246 -1.6493 -1.4455 1.7207 -1.8875 -0.6338 2.9265 -1.0221 1.7652 -2.5332
2.1613 -2.5754 -2.5569 -0.4384 3.9081 -2.1668 -1.9068 2.1537 -3.4253 -2.8807 -1.7953 1.4951 1.7372 0.6696 2.8536 -2.6604 -0.3810 3.8130 -1.1608 1.7970 -1.0774 0.5904 0.1881 -2.8736 1.8794 -2.0234 -0.2450 -0.4447 0.1193 3.3429 0.5940 1.6072 -2.8555 1.4226 0.2909 -0.6204 -0.6493 -1.2531 1.0158 1.3886 -1.8136 -1.6520 1.6103 -0.3414 -1.8880 1.6472 -0.6747 0.4088 0.5410 -0.6432 1.3471 0.6993 0.0865 2.5351 -1.7158 -1.2025 1.8125 -1.6781 -0.4605 3.0844 -0.7364 2.3437 -2.3474

>  <OB_ATOM_TYPES> (1tdbA1)
O.3 O.3 O.3 F O.2 O.2 O.2 C.3 C.3 N.ar O.3 O.3 C.ar C.3 C.3 C.3 N.ar C.ar C.ar C.ar P.3

>  <ENSEMBLE_RMSD> (1tdbA1)
0.830 0.915 0.938 1.095 1.098 1.147 1.185 1.212 1.217 1.271 1.335 1.343 1.349 1.371 1.377 1.410 1.431 1.434 1.452 1.479 1.485 1.498 1.513 1.531 1.572 1.590 1.599 1.600 1.664 1.742 1.756 1.808 1.829 1.962 1.991 2.007 2.016 2.031 2.041 2.149 2.149 2.179 2.205 2.286 2.293 2.470 2.531 2.697

$$$$
