
 OpenBabel03071213D

  8  8  0  0  0  0  0  0  0  0999 V2000
   30.5350   15.6930   14.8290 N   0  0  0  0  0
   28.6840   13.3890   19.2590 C   0  0  0  0  0
   29.8870   13.0470   18.3560 C   0  0  0  0  0
   28.3610   14.8940   19.2410 C   0  0  0  0  0
   29.2860   15.5890   15.5510 C   0  0  0  0  0
   29.6470   13.5710   16.9460 C   0  0  0  0  0
   28.2560   15.3640   17.7860 C   0  0  0  0  0
   29.4710   15.0640   16.9590 C   0  0  0  0  0
  1  5  1  0  0  0
  2  3  1  0  0  0
  2  4  1  0  0  0
  3  6  1  0  0  0
  4  7  1  0  0  0
  5  8  1  0  0  0
  6  8  1  0  0  0
  7  8  1  0  0  0
M  END
>  <MOLID> (1tngA1)
1tngA1

>  <SMILES_CANONICAL> (1tngA1)
NCC1CCCCC1	

>  <FINGERPRINT> (1tngA1)
0000000000000000000000000000000000000001000000000000000000000000000000000000000000000000000000000000000000000000000001000000000000000000000000000000000000000000000000000000000000000000000000000000000000000000000000000000000000000000000000000000000000000000000000000000000000000000000000000000000000000000000000001000000000000000000000000000000000000000010000000000000100000000000000000000000000000000000000000000000000000000000000000000000000000000000000000000000000000000000000000000000000000000000000000000000000000000000000000000000000000000000000000000000000000000000000000000001000000000001000000000000000000000000000000000000000000001000000000000000000000000000000000001000000000000000000000001000000000000000000000000000000000000000000000000000000000000000100000000000000000000000000000000000000000000000000000000000000000000000000000000000000000000000000000000000000000000000000000000000000000000000000000000000000000000000000000000010000000000000000000000000000000010000000000000000000000000000000000000000000000000

>  <MACCS166> (1tngA1)
000000000000000000000000000000000000000000000000000000000000000000000000000000000101000001100000000100000000000000000100000000011010000001000100001000101010010010101000

>  <OB_MW> (1tngA1)
113.12

>  <OB_logP> (1tngA1)
2.2257

>  <OB_PSA> (1tngA1)
26.02

>  <OB_MR> (1tngA1)
36.3564

>  <OB_ATOMIC_CHARGES> (1tngA1)
-0.1313879553 1.1827e-06 4.70315e-05 4.70315e-05 0.1092597388 0.0014848495 0.0014848495 0.0190632718

>  <MCT_HBD> (1tngA1)
1

>  <MCT_HBA> (1tngA1)
1

>  <ENSEMBLE_TOTAL> (1tngA1)
4

>  <ENSEMBLE_COORDS> (1tngA1)
1.2691 1.1166 -2.5369 -0.5819 -1.1874 1.8931 0.6211 -1.5294 0.9901 -0.9049 0.3176 1.8751 0.0201 1.0126 -1.8149 0.3811 -1.0054 -0.4199 -1.0099 0.7876 0.4201 0.2051 0.4876 -0.4069
0.9101 1.5281 -2.4996 -0.6258 -1.0563 1.9586 0.5294 -1.5874 1.1343 -1.2934 0.1638 1.3601 -0.0882 0.7278 -1.8136 0.4321 -1.1712 -0.3159 -0.3127 1.0589 0.6346 0.4486 0.3362 -0.4585
0.5484 1.2457 -2.6235 -1.0259 -1.2103 1.2865 0.4394 -1.5574 1.1573 -1.2580 0.2831 1.3730 -0.2277 0.5722 -1.5982 1.0409 -0.9415 -0.0871 -0.1188 1.1215 0.8308 0.6016 0.4867 -0.3388
0.0233 0.9604 -2.5833 -0.3751 -0.8808 1.9880 0.3793 -1.7243 0.9819 -1.3997 0.0082 1.3241 0.9472 1.2037 -1.4895 0.6481 -1.0191 -0.3340 -0.7752 0.9660 0.3307 0.5522 0.4859 -0.2179

>  <OB_ATOM_TYPES> (1tngA1)
N.3 C.3 C.3 C.3 C.3 C.3 C.3 C.3

>  <ENSEMBLE_RMSD> (1tngA1)
0.000 0.450 0.674 0.689

$$$$
