
 OpenBabel03071213D

 11 11  0  0  0  0  0  0  0  0999 V2000
   29.8680   14.9520   13.0270 N   0  0  0  0  0
   28.8910   15.4650   16.5610 C   0  0  0  0  0
   29.8140   15.8390   15.4380 C   0  0  0  0  0
   29.5580   14.6080   17.6300 C   0  0  0  0  0
   29.0920   15.5130   14.1370 C   0  0  0  0  0
   30.8630   10.5610   16.9830 C   0  0  0  0  0
   29.8790   11.1320   16.1840 C   0  0  0  0  0
   31.5100   11.3480   17.9030 C   0  0  0  0  0
   29.5220   12.4630   16.2720 C   0  0  0  0  0
   31.1550   12.6880   17.9960 C   0  0  0  0  0
   30.1700   13.2680   17.1930 C   0  0  0  0  0
  1  5  2  0  0  0
  2  3  1  0  0  0
  2  4  1  0  0  0
  3  5  1  0  0  0
  4 11  1  0  0  0
  6  7  2  0  0  0
  6  8  1  0  0  0
  7  9  1  0  0  0
  8 10  2  0  0  0
  9 11  2  0  0  0
 10 11  1  0  0  0
M  END
>  <MOLID> (1tniA1)
1tniA1

>  <SMILES_CANONICAL> (1tniA1)
N=CCCCc1ccccc1	

>  <FINGERPRINT> (1tniA1)
0000000000000000000000000000000000000001000000000000000000000000000000000000000000000001000000100000000000000001000010100000000000000000000000000000000000000000000000000000000000000000000000000000000000000000000000000000000000000000000000000010000000000001000000000000000000001000000000000000000000001000000010000100000100001000000100010000000000000000010000000000000010000000000000000000000000000000000000000000000000000000001000000000000000000000000000000000000000000000000000000000000000000000000000000000000000000000000000000000000000000000000000100000000000000000000000000000000000000000000000000000000000000000000000000000000000000001000000000000000000000001000000000000100000000000000000000000000000000000000000000000000000000000000000000100000000000000000100000000000000000000000000000000000010000000000000000000000000000000010000000000000000000000000000000000000000000000000000000000000000000000000000000000000000000000000000000000001000000000000000100000000000000000000000000000000000000000000000000000010000000000

>  <MACCS166> (1tniA1)
000000000000000000000000000000000000000000000000010000000000000000000000000101000000000001100000001000010000001000000110000000000010000000000100001000100010000010101000

>  <OB_MW> (1tniA1)
147.105

>  <OB_logP> (1tniA1)
2.7586

>  <OB_PSA> (1tniA1)
23.85

>  <OB_MR> (1tniA1)
49.4197

>  <OB_ATOMIC_CHARGES> (1tniA1)
-0.1514103602 0.011073754 0.0492862729 0.0267519481 0.0956725261 -2.00236e-05 -0.0003225302 -0.0003225302 -0.0042664406 -0.0042664406 -0.0221761756

>  <MCT_HBD> (1tniA1)
1

>  <MCT_HBA> (1tniA1)
1

>  <ENSEMBLE_TOTAL> (1tniA1)
18

>  <ENSEMBLE_COORDS> (1tniA1)
-0.1613 1.5123 -3.2752 -1.1383 2.0253 0.2588 -0.2153 2.3993 -0.8642 -0.4713 1.1683 1.3278 -0.9373 2.0733 -2.1652 0.8337 -2.8787 0.6808 -0.1503 -2.3077 -0.1182 1.4807 -2.0917 1.6008 -0.5073 -0.9767 -0.0302 1.1257 -0.7517 1.6938 0.1407 -0.1717 0.8908
-0.1652 1.1317 -2.8881 -0.3038 2.1865 0.4261 -0.9727 2.2749 -0.9252 -0.9066 1.0735 1.2566 0.0682 1.9965 -1.9596 0.9986 -2.6571 0.3627 -0.2708 -2.4553 -0.0345 1.6953 -1.6312 1.1179 -0.9358 -1.2023 0.2744 1.0761 -0.4752 1.4156 -0.2833 -0.2418 0.9541
-0.2042 2.4989 -3.2945 -0.0638 1.9698 0.1203 -0.9948 2.2886 -1.0237 -0.7238 1.0598 1.1338 -0.3876 1.7341 -2.2702 0.9527 -2.8624 0.7017 -0.2916 -2.6263 0.2414 1.6820 -1.8139 1.3937 -0.8907 -1.3136 0.4107 1.1223 -0.6047 1.5621 -0.2003 -0.3303 1.0247
0.0504 2.3901 -3.0899 -1.1639 1.7898 0.2007 -1.3733 1.6592 -1.2918 0.1788 1.2288 0.6207 -0.5704 2.7001 -2.0018 0.6590 -3.0109 1.0534 -0.3095 -2.5578 0.2383 1.4991 -2.0710 1.7746 -0.5131 -1.1293 0.0848 1.3009 -0.7477 1.6389 0.2419 -0.2514 0.7720
-0.0581 2.6520 -3.1760 -0.1810 2.0145 0.1062 -1.1105 2.0960 -1.0819 -0.7169 1.0559 1.1462 -0.3141 1.7454 -2.2948 0.9156 -2.8876 0.7576 -0.3604 -2.6649 0.3920 1.7205 -1.7992 1.2833 -0.9230 -1.3321 0.5058 1.1983 -0.5642 1.3943 -0.1704 -0.3158 0.9674
0.5353 1.6273 -2.7692 -1.3294 1.6516 -0.0871 -0.3720 2.6070 -0.7595 -0.7006 1.0939 1.1707 -0.4033 2.3268 -2.2254 0.8973 -2.8373 0.5998 -0.3972 -2.7053 0.9385 1.7295 -1.6595 0.4318 -0.9635 -1.3823 1.1358 1.2037 -0.4337 0.6072 -0.1996 -0.2884 0.9573
-1.0283 3.0363 -3.2843 0.1214 1.8353 -0.0533 -0.0680 1.6832 -1.5430 -0.7808 0.8833 0.7051 -0.9754 2.7700 -2.0219 1.0631 -2.9525 1.1671 0.1421 -2.7842 0.2021 1.3931 -1.8562 2.0556 -0.5077 -1.4956 0.0410 0.8065 -0.6565 1.8967 -0.1661 -0.4632 0.8349
-0.9315 1.5265 -3.0826 -0.7514 1.9262 0.3610 -0.5240 2.6066 -0.9673 0.5415 1.3257 0.8646 -1.4194 1.9518 -1.9665 0.5319 -2.9547 0.7660 1.0850 -2.2772 -0.2560 -0.0695 -2.2338 1.8739 1.0885 -0.8254 -0.2471 -0.0702 -0.8888 1.8817 0.5189 -0.1568 0.7722
-1.2331 2.2997 -3.3029 -0.7161 1.8211 0.2673 -0.5124 2.5804 -1.0206 0.5989 1.2465 0.7435 -1.2330 1.8397 -2.0977 0.4957 -3.0283 0.9726 1.0397 -2.4440 -0.1101 -0.0529 -2.2113 2.0402 1.0775 -0.9959 -0.2109 -0.0185 -0.8699 1.9482 0.5542 -0.2381 0.7704
0.1226 2.8620 -3.2294 -1.3063 1.2844 -0.4674 -0.8166 2.5982 -1.0207 -0.6379 1.0068 0.8598 0.2049 2.3022 -2.0699 0.9066 -2.9802 1.0681 -0.2979 -2.7143 1.6056 1.6609 -1.9204 0.4244 -0.8405 -1.3685 1.5453 1.1553 -0.6764 0.3575 -0.1512 -0.3936 0.9268
-0.7636 3.2915 -3.1369 -0.6339 1.6329 -0.0035 -1.2306 1.7012 -1.3888 0.6784 0.8828 -0.0442 -1.0623 3.0952 -1.8977 0.4420 -3.0626 1.6056 0.2115 -2.8867 0.2915 0.7492 -1.9202 2.4470 0.2742 -1.5554 -0.2856 0.7969 -0.6854 1.9153 0.5382 -0.4935 0.4974
-1.0711 1.0747 -2.7894 -0.7786 1.9682 0.3235 -0.3417 2.5291 -1.0075 0.4012 1.3618 1.0492 -1.3346 2.0853 -2.0316 0.6085 -2.8919 0.6008 1.4739 -2.1178 -0.0775 -0.3920 -2.2837 1.4593 1.4121 -0.6727 0.0546 -0.4547 -0.9456 1.5785 0.4772 -0.1074 0.8401
0.3571 3.6281 -2.6966 -1.0305 1.0029 -0.8511 -1.1722 2.4496 -1.2557 -0.3698 0.9191 0.5060 -0.4527 2.6340 -2.5500 0.8319 -3.0783 1.4615 -0.3828 -2.6503 1.8494 1.7155 -2.1877 0.7314 -0.8116 -1.2991 1.5344 1.3185 -0.9372 0.4352 -0.0035 -0.4811 0.8353
0.1084 2.2612 -3.0948 -0.6357 1.8233 0.1873 -0.9808 2.7116 -0.9879 -1.2562 0.4578 -0.0136 0.2023 2.7415 -1.9005 1.2307 -2.7028 1.4554 0.1709 -2.3096 2.1850 1.5129 -2.0644 0.1812 -0.6815 -1.2337 1.7049 0.7235 -1.0700 -0.2623 -0.3946 -0.6150 0.5453
-0.8322 0.9575 -2.8048 -0.0167 2.1940 0.1752 -1.1123 2.3465 -0.8536 -0.4431 1.2194 1.2526 -0.5203 2.0514 -2.1941 0.9449 -2.7593 0.4881 1.8092 -1.8525 0.9774 -0.4366 -2.3865 0.2339 1.3634 -0.4972 1.2512 -0.8465 -1.1298 0.4816 0.0900 -0.1435 0.9927
-0.6295 1.3583 -3.1439 -0.1420 2.1173 0.1967 -1.1267 2.2155 -0.9445 -0.6311 1.1248 1.2282 -0.3420 2.2061 -2.2146 1.0242 -2.7761 0.6139 1.6723 -1.9135 1.4177 -0.2216 -2.3832 -0.0196 1.1305 -0.5848 1.6436 -0.7242 -1.1534 0.1881 -0.0098 -0.2111 1.0343
-1.0523 2.6280 -3.4956 0.0343 1.8322 -0.1214 -1.0191 2.2684 -1.1125 -0.6030 1.0148 0.9778 -0.4377 2.1195 -2.4816 1.0832 -2.9208 1.0421 1.6965 -1.9356 1.7237 -0.1589 -2.6537 0.3389 1.1339 -0.5964 1.7332 -0.6820 -1.4160 0.3508 0.0051 -0.3403 1.0447
-0.2301 3.9048 -3.0214 -0.6832 1.4032 -0.4166 -0.3857 1.8132 -1.8383 -1.1636 -0.0300 -0.3977 -0.3464 3.3038 -1.8857 1.2364 -2.5818 2.0641 0.0699 -2.1162 2.5454 1.6748 -2.2038 0.7322 -0.7513 -1.2359 1.7324 0.9161 -1.3878 -0.0207 -0.3369 -0.8693 0.5063

>  <OB_ATOM_TYPES> (1tniA1)
N.2 C.3 C.3 C.3 C.2 C.ar C.ar C.ar C.ar C.ar C.ar

>  <ENSEMBLE_RMSD> (1tniA1)
0.000 0.624 0.634 0.674 0.697 0.836 0.876 0.996 1.049 1.149 1.159 1.177 1.342 1.427 1.510 1.525 1.600 1.722

$$$$
