
 OpenBabel03071213D

 10 11  0  0  0  0  0  0  0  0999 V2000
   29.9220   15.1630   13.4350 N   0  0  0  0  0
   29.3470   16.5960   15.4000 C   0  0  0  0  0
   29.2640   13.6990   19.5790 C   0  0  0  0  0
   28.7430   14.9720   19.3680 C   0  0  0  0  0
   29.7350   12.9350   18.5160 C   0  0  0  0  0
   28.6820   15.4810   18.0860 C   0  0  0  0  0
   29.6770   13.4390   17.2310 C   0  0  0  0  0
   30.1900   15.4610   14.8430 C   0  0  0  0  0
   28.9490   15.1840   15.6180 C   0  0  0  0  0
   29.1430   14.7060   17.0310 C   0  0  0  0  0
  1  8  1  0  0  0
  2  8  1  0  0  0
  2  9  1  0  0  0
  3  4  1  0  0  0
  3  5  2  0  0  0
  4  6  2  0  0  0
  5  7  1  0  0  0
  6 10  1  0  0  0
  7 10  2  0  0  0
  8  9  1  0  0  0
  9 10  1  0  0  0
M  END
>  <MOLID> (1tnlA1)
1tnlA1

>  <SMILES_CANONICAL> (1tnlA1)
N[C@H]1C[C@@H]1c1ccccc1	

>  <FINGERPRINT> (1tnlA1)
0000000000000000000000000000000000000000000000000000001000000000000000000000000000000001000000000000000000000001000001100000000000000000000000000000000000000000000000000000000000000000000000000000000000000000000000000000000000000000000000000000000000000000000000000000000000001000000000000000000000001000000010001100000000001000000100000000000000000000010000000000000010000000000000000000000000000000000000000000000000000001000000000000000000000000000000000000000000000000000000000000000000000000000000000000000000000000000000000000000000000000000000100000000000000000000000000000000000000000000000000000000000000000000000000000000000000001000000000000000000000001000000000001100000000000000000000000000000000000000000000000000000000000100000010100000000000000000100000000000000000000000000000000000010000000000000000000000000000000000000000000000000000000000000000000000000000000000000000000000000000100000000000000000000000000000000000000011000000000000010100000000000000000000000000000000000000000000000000000010000000000

>  <MACCS166> (1tnlA1)
000000000000000000000100000000000000000000000000010000000000010000000000000100000001000000000000001000010000001000000000000000000010100000000100000001100001010010101000

>  <OB_MW> (1tnlA1)
133.089

>  <OB_logP> (1tnlA1)
2.2015

>  <OB_PSA> (1tnlA1)
26.02

>  <OB_MR> (1tnlA1)
41.6154

>  <OB_ATOMIC_CHARGES> (1tnlA1)
-0.1325594172 0.0251452255 -2.00201e-05 -0.0003220864 -0.0003220864 -0.0042308896 -0.0042308896 0.0962128537 0.0413796838 -0.0210523739

>  <MCT_HBD> (1tnlA1)
1

>  <MCT_HBA> (1tnlA1)
1

>  <ENSEMBLE_TOTAL> (1tnlA1)
3

>  <ENSEMBLE_COORDS> (1tnlA1)
0.5568 0.3994 -3.4757 -0.0182 1.8324 -1.5107 -0.1012 -1.0646 2.6683 -0.6222 0.2084 2.4573 0.3698 -1.8286 1.6053 -0.6832 0.7174 1.1753 0.3118 -1.3246 0.3203 0.8248 0.6974 -2.0677 -0.4162 0.4204 -1.2927 -0.2222 -0.0576 0.1203
0.0795 0.4616 -3.6402 0.7399 1.7247 -1.5150 -0.1844 -1.1546 2.6904 -1.0109 0.0047 2.4080 0.5965 -1.6779 1.7288 -0.9952 0.5623 1.1841 0.6107 -1.0864 0.4029 0.6052 0.4432 -2.2809 -0.3046 0.7206 -1.1194 -0.1368 0.0018 0.1412
1.7146 0.9970 -1.9352 -0.6154 0.1130 -2.5265 0.2145 -1.0883 2.5285 0.0816 0.3500 2.3791 0.0277 -1.8996 1.4730 -0.2341 0.8767 1.1826 -0.3058 -1.3363 0.1775 0.2904 1.2398 -2.1314 -0.7618 0.7501 -1.1746 -0.4116 -0.0023 0.0270

>  <OB_ATOM_TYPES> (1tnlA1)
N.3 C.3 C.ar C.ar C.ar C.ar C.ar C.3 C.3 C.ar

>  <ENSEMBLE_RMSD> (1tnlA1)
0.000 0.415 1.034

$$$$
