
 OpenBabel03071213D

 10  9  0  0  0  0  0  0  0  0999 V2000
  -12.2260   18.7660   24.9600 O   0  0  0  0  0
  -13.2200   21.1770   24.1070 O   0  0  0  0  0
   -8.2850   24.1050   26.9830 O   0  0  0  0  0
   -8.2810   21.6790   25.8320 O   0  0  0  0  0
  -11.6090   19.6820   22.5040 O   0  0  0  0  0
  -10.5970   21.3760   26.0020 C   0  0  0  0  0
  -10.4770   20.8330   24.6590 O   0  0  0  0  0
   -9.4720   23.3690   26.8000 N   0  0  0  0  0
   -9.3520   22.2140   26.2180 C   0  0  0  0  0
  -11.8570   20.0350   24.0020 P   0  0  0  0  0
  1 10  1  0  0  0
  2 10  1  0  0  0
  3  8  2  0  0  0
  4  9  2  0  0  0
  5 10  2  0  0  0
  6  7  1  0  0  0
  6  9  1  0  0  0
  7 10  1  0  0  0
  8  9  1  0  0  0
M  END
>  <MOLID> (1tphB1)
1tphB1

>  <SMILES_CANONICAL> (1tphB1)
O=NC(=O)COP(=O)(O)O	

>  <FINGERPRINT> (1tphB1)
0000000000000000000000000000000000000000000000000000000000000000000000000000000000000000000000000001000000000000000001000000000000000000000000000000000000000100000000000000000000000000000000000000000000000000010000000000000000000000000000000000000000000000000001000000000000000000000000000000000000000000000000000000000000000000000000000000000000000000010000000000000001000000000000000000000010000001100000000000001010000001000000100000000000100000000000000000000000000000000000000000000000001000000001000000100000000000000001000000000000100000000000000000000000000000000000000000000000000000000010000000000000000000000000000010000000001010000000000000000000000000000000000000010000000000000011100000000000000010000000000000000000000000000000000010000000000000000000000000000000000000000000000000000000000000000000000000000000000000000000100000000000000000000000000000000000000001000000000000000000000000000000000000000000000000000000000000010000000010000000000000000000000000000000000000000000000000000000001000000000000000

>  <MACCS166> (1tphB1)
000000000000000000000000000010000000000000100001000000000000001000000011000000000000000011010110000001000100011100001010000101000111000101110100010100001111111010010000

>  <OB_MW> (1tphB1)
168.978

>  <OB_logP> (1tphB1)
-0.6113

>  <OB_PSA> (1tphB1)
123.07

>  <OB_MR> (1tphB1)
28.7381

>  <OB_ATOMIC_CHARGES> (1tphB1)
-0.1145260433 -0.1145260433 -0.1530457475 -0.2670182985 -0.2223734756 0.2433717368 -0.26008481 0.0411635653 0.3139848833 0.5330542327

>  <MCT_HBD> (1tphB1)
2

>  <MCT_HBA> (1tphB1)
7

>  <ENSEMBLE_TOTAL> (1tphB1)
50

>  <ENSEMBLE_COORDS> (1tphB1)
-1.6222 -2.4901 -0.4698 -2.5087 -0.0415 -0.7559 1.2632 2.8706 1.4312 2.4362 0.1965 1.5322 -1.2499 -1.1980 -2.5584 0.1911 -0.2906 0.8231 0.0733 -0.4931 -0.5747 1.3515 1.9186 0.6613 1.3885 0.5842 1.0322 -1.3229 -1.0567 -1.1213
-1.3770 -2.0416 0.2368 -2.7792 -0.5476 -1.3931 1.2629 2.1166 2.5117 2.2719 0.1389 0.1499 -0.8463 -1.8921 -2.1858 -0.0907 0.5420 0.4938 -0.3126 0.1202 -0.8360 1.8084 1.8654 1.4374 1.3768 0.8062 0.6503 -1.3142 -1.1079 -1.0650
-1.8228 -1.9299 0.1327 -2.1149 0.4046 -1.0128 0.8463 2.5623 1.8532 2.6635 0.6855 0.9509 -1.4929 -1.6194 -2.3092 0.7960 -0.7396 0.4693 0.2729 -0.6607 -0.8431 0.6861 1.7002 0.9944 1.4546 0.5655 0.7990 -1.2889 -0.9684 -1.0344
-1.4220 -2.4498 -0.5907 -2.8508 -0.4057 -1.3522 1.6627 2.6395 0.4897 2.5478 0.1562 1.2704 -0.5674 -0.7853 -2.2328 0.2705 -0.5401 0.9580 -0.7390 -0.0021 0.1283 1.0918 1.8296 1.2196 1.3697 0.4685 1.1419 -1.3632 -0.9106 -1.0323
-1.8017 -2.6325 -1.1340 -2.3237 -0.0730 -1.0543 1.9927 2.8178 1.1338 1.7499 0.3793 -0.1131 -0.1656 -0.9449 -1.9360 -0.3364 0.1900 1.1068 -0.4852 -1.0903 0.5297 1.5141 1.7797 1.5872 1.0229 0.7503 0.7985 -1.1671 -1.1765 -0.9188
-1.0942 -2.7894 -0.9965 -2.8428 -0.8574 -1.1449 2.5421 2.5534 0.9912 1.7974 -0.1098 1.0497 -0.5663 -0.6470 -2.1331 -0.3728 0.7706 0.4310 -0.7260 -0.6003 0.3727 1.5227 2.0417 1.4534 1.0233 0.8355 0.9808 -1.2834 -1.1973 -1.0043
-1.3287 -2.7403 -0.6209 -2.6907 -0.6158 -1.3013 1.7441 2.3659 2.0972 1.8678 -0.1136 0.0991 -0.2871 -0.8763 -1.8857 -0.3205 0.8733 0.4579 -0.8168 -0.4498 0.5260 1.9049 1.8979 0.9720 1.1795 0.8141 0.5015 -1.2525 -1.1554 -0.8457
-1.8570 -2.3597 -0.5319 -2.4359 -0.0381 -1.5865 1.0734 2.7079 1.0410 2.2741 0.3043 -0.0667 -0.1719 -1.0349 -1.8007 0.3680 -0.5919 1.0916 -0.8180 -0.1559 0.4498 1.4442 1.6304 1.5029 1.4073 0.4433 0.7863 -1.2842 -0.9053 -0.8858
-0.7085 -1.9559 0.1950 -2.7740 -1.2097 -1.2230 2.4897 1.8328 2.1736 1.6104 -0.1242 0.4422 -0.5455 -1.5806 -2.2528 -0.5604 0.9395 0.4554 -0.7856 0.4630 -0.8590 1.5477 1.8750 1.3891 0.9118 0.8369 0.7372 -1.1855 -1.0769 -1.0578
-1.3280 -2.4531 -0.0803 -1.9449 0.0753 -0.3026 1.6519 2.6055 1.9620 1.1550 -0.1763 1.5296 -1.6156 -1.3738 -2.2954 0.8819 0.5261 -0.7707 0.4479 -0.7941 -1.0308 0.8746 1.9977 1.2332 0.9946 0.7224 0.7155 -1.1175 -1.1297 -0.9606
-1.9471 -2.5905 -0.7089 -2.1474 -0.0397 -1.2408 1.6661 2.2695 2.1587 1.3924 0.8990 -0.7516 -0.1150 -1.3479 -1.8400 -0.2923 0.4830 0.9340 -0.4474 -0.8801 0.5832 1.9885 1.4800 1.2726 1.0391 0.9395 0.4183 -1.1369 -1.2128 -0.8256
-0.8677 -2.6701 -0.9111 -2.6974 -0.8841 -1.4419 2.4672 2.4647 0.8918 1.6506 -0.1907 0.5410 -0.2822 -0.4386 -1.8243 -0.5567 0.7909 0.7360 -1.0498 -0.5242 0.5668 1.5961 1.8156 1.4674 0.9374 0.7379 0.8962 -1.1975 -1.1015 -0.9218
-0.8423 -2.2793 -0.0333 -2.7831 -1.1530 -1.3684 1.9797 2.5667 1.4311 1.5248 -0.5795 0.7625 -0.4132 -0.9474 -2.0922 0.0811 1.1017 -0.2004 -1.0902 0.3244 -0.0377 1.6885 1.4022 1.7002 1.1077 0.5704 0.7542 -1.2531 -1.0062 -0.9161
-1.8233 -1.6946 0.2997 -2.4829 0.1927 -1.3827 0.0369 2.0111 1.3961 2.9252 0.6387 0.6579 -1.1009 -1.7498 -2.0839 0.8846 -0.5983 0.3286 0.0117 -0.0565 -0.6471 1.1684 1.5678 1.5809 1.7178 0.5416 0.8261 -1.3375 -0.8527 -0.9756
-0.6456 -2.2788 -0.4083 -2.6432 -1.1045 -1.6193 2.3686 2.4299 0.9863 1.8366 -0.3637 0.6939 -0.2980 -0.3853 -1.9838 -0.4289 0.1074 1.3194 -1.2985 0.2049 0.2098 1.3327 1.7969 0.8404 0.9733 0.4730 0.9264 -1.1971 -0.8799 -0.9648
-1.8217 -2.6201 -0.7329 -2.2680 -0.2622 -1.7637 2.6442 2.2590 1.5145 0.8769 1.3594 -0.4316 0.0184 -1.2145 -1.6318 0.2766 -0.4167 1.0891 -1.0218 -0.4556 0.5257 1.6143 1.6051 1.6439 0.9133 0.8855 0.6963 -1.2322 -1.1400 -0.9094
-1.7836 -2.6301 -0.6827 -1.9904 -0.0938 -0.1017 1.9376 2.7248 1.6016 0.5358 0.2990 1.8231 -1.2107 -0.8668 -2.3359 1.1130 0.0201 -0.5119 0.3788 -1.1867 -0.4364 1.2247 2.1332 0.7964 0.9415 0.7797 0.7733 -1.1468 -1.1794 -0.9258
-1.3052 -2.4260 -0.0313 -1.9086 0.0985 -0.3174 1.1769 2.5651 2.0804 0.7175 -0.0717 1.5385 -1.6171 -1.4070 -2.2755 0.8969 0.5235 -0.8016 0.4668 -0.7999 -1.0498 1.6142 1.9178 1.1312 1.0578 0.7309 0.6795 -1.0991 -1.1311 -0.9541
-1.4834 -2.4366 -0.1706 -2.5456 -0.3732 -1.3815 2.9857 1.8616 1.3254 0.1628 2.1706 0.9649 -0.7833 -1.7549 -2.4540 0.1257 -0.2215 0.8020 -0.0448 -0.2710 -0.6044 2.0340 1.1409 1.5970 0.7499 1.1046 1.0980 -1.2010 -1.2206 -1.1769
-0.8715 -1.9827 0.3295 -2.8599 -1.1717 -1.1495 1.7271 1.9160 2.4392 1.5863 -0.3799 0.8344 -0.5652 -1.3955 -2.0670 0.3631 0.9809 -0.7301 -0.9504 0.5073 -0.4851 1.6521 1.8080 1.2205 1.2069 0.7294 0.4836 -1.2885 -1.0118 -0.8754
-1.0813 -1.4714 0.5932 -2.7231 -0.9534 -1.3777 2.0341 1.5529 2.5359 2.0372 0.5065 -0.0693 -0.5448 -2.0820 -1.7522 -0.2648 1.2393 -0.1526 -0.4508 0.3394 -1.2282 1.1365 1.0228 1.8886 1.0387 0.9049 0.5150 -1.1817 -1.0590 -0.9527
-2.1656 -1.5963 0.1443 -1.3923 0.5547 -1.1318 0.1685 2.0037 2.0671 2.0614 0.9847 -0.4396 -1.2479 -1.6984 -2.1601 0.7564 -0.5925 0.8589 0.3876 -1.2185 -0.3551 1.1707 1.8248 1.3795 1.3650 0.7424 0.5364 -1.1037 -1.0046 -0.8995
-1.5899 -2.6055 -1.1592 -2.7659 -0.3164 -0.7207 1.6459 2.8859 0.7816 1.1414 0.6187 2.2315 -0.7283 -0.4824 -2.1311 0.9553 -0.5851 0.1596 -0.4337 -0.8019 0.3421 1.8354 1.7250 0.4282 1.2909 0.5966 1.0167 -1.3511 -1.0349 -0.9488
-0.9265 -2.0326 0.3915 -2.7405 -1.2797 -1.3235 1.8358 1.5743 2.4990 1.7299 -0.2460 0.3484 -0.3273 -1.2795 -1.8977 0.0721 1.2171 -0.5999 -1.1021 0.4886 -0.2970 1.5549 1.7485 1.3183 1.1487 0.8315 0.3712 -1.2449 -1.0220 -0.8103
-0.9516 -1.7915 0.2741 -2.6474 -0.1024 -0.7605 0.4297 2.3882 1.0917 1.6679 -0.5713 1.7053 -1.1509 -1.4750 -2.1891 1.2440 0.0505 -0.5810 -0.0871 0.3901 -0.9262 1.2863 1.5734 1.4285 1.4063 0.3017 0.8889 -1.1972 -0.7637 -0.9317
-1.0320 -1.8351 0.3894 -1.9305 0.4224 -0.5900 0.4765 2.5048 1.5353 1.9017 -0.4613 1.2325 -1.6837 -1.6124 -1.9942 1.0332 0.6424 -0.7365 0.4340 -0.5000 -1.3136 0.6328 1.2926 1.6437 1.2336 0.4365 0.7386 -1.0656 -0.8899 -0.9051
-0.7641 -2.2633 -0.1378 -2.7380 -0.7346 -0.9079 2.8352 1.9121 1.0881 -0.1650 0.6967 1.9425 -0.9941 -1.5082 -2.4967 0.8973 0.0823 -0.1367 -0.3113 0.2351 -0.8573 1.6835 1.8037 1.4966 0.7449 0.8537 1.1394 -1.1884 -1.0776 -1.1304
-1.9426 -1.9313 0.2921 -1.9771 0.4187 -0.8483 -0.1818 1.7392 1.7635 2.8433 0.6484 0.7208 -1.3599 -1.6392 -2.1027 0.9244 0.4133 -0.7124 0.3110 -0.8354 -0.4429 0.9797 1.3924 1.5964 1.6421 0.7981 0.5432 -1.2391 -1.0041 -0.8097
-1.8845 -2.5799 -1.0897 -2.1859 -0.1404 -0.2109 2.1454 2.6758 1.3226 0.1509 0.7973 1.7772 -0.7724 -0.6532 -2.1954 1.1716 -0.3961 -0.0655 0.1267 -1.3412 0.0444 1.5142 2.0021 0.5107 0.8931 0.7979 0.8044 -1.1590 -1.1621 -0.8977
-0.9931 -2.5844 -0.9682 -2.9302 -0.8307 -1.0031 2.2773 2.3215 0.0822 0.9347 0.4379 2.5107 -0.8518 -0.4993 -2.3218 0.7577 -0.2154 0.1996 -0.6594 -0.2363 0.1511 1.6934 1.9297 1.0866 1.1122 0.6999 1.3287 -1.3407 -1.0230 -1.0658
-1.1761 -1.7784 0.4568 -1.9464 0.4504 -0.6801 0.0667 2.2616 1.6006 2.2238 -0.2835 1.0805 -1.6563 -1.6504 -1.9749 0.9763 0.6705 -0.7515 0.4383 -0.5589 -1.2018 0.7917 1.2765 1.6651 1.3778 0.5058 0.6833 -1.0957 -0.8936 -0.8780
-1.7467 -2.4835 -0.0210 -2.3558 -0.5719 -1.6929 1.6137 1.5109 2.5035 1.9783 1.0675 -0.7229 -0.0296 -1.4375 -1.4794 -0.3015 1.1679 0.0430 -0.8871 -0.0627 0.4245 1.7646 0.9031 1.4516 1.1840 1.0436 0.2082 -1.2197 -1.1377 -0.7146
-1.1585 -1.5351 0.6590 -2.7461 -0.8920 -1.3132 0.9787 2.0906 2.1058 2.2058 -0.4120 0.3258 -0.3824 -1.5467 -1.7055 0.5991 1.0162 -0.7538 -0.7740 0.6951 -0.6556 1.1521 0.9485 1.6976 1.3609 0.4693 0.4203 -1.2356 -0.8340 -0.7805
-1.0152 -1.4920 0.6037 -2.7984 -0.4121 -0.9612 0.4943 1.5983 2.2419 2.1970 -0.2378 1.0782 -0.9439 -1.7855 -1.8684 1.0521 0.3782 -0.9363 -0.3557 0.4897 -1.0031 1.1309 1.7145 1.1934 1.4938 0.5717 0.4855 -1.2548 -0.8249 -0.8337
-0.3101 -2.0192 -0.4160 -2.6553 -1.0804 -1.0826 1.5589 2.2233 0.0189 1.6296 -0.6260 1.6387 -0.6159 -0.5359 -2.3842 -0.4909 0.4246 1.2028 -0.8347 0.5600 -0.1648 1.7984 1.4508 0.9442 1.0061 0.3634 1.2782 -1.0862 -0.7606 -1.0352
-0.7223 -2.2177 -0.0392 -2.7856 -0.9226 -0.9889 2.9505 1.4484 1.3193 -0.2110 0.9623 1.8287 -0.8708 -1.5617 -2.4354 0.8102 0.2787 -0.2598 -0.4841 0.2931 -0.8259 1.7843 1.8172 1.4568 0.7269 1.0157 1.0447 -1.1981 -1.1134 -1.1004
-1.6834 -2.3716 -1.1563 -2.5942 -0.0031 -0.5393 0.6896 2.3361 -0.1902 2.0204 0.3374 2.2044 -0.6159 -0.2938 -2.0128 1.0825 -0.6319 0.2167 -0.3079 -0.8162 0.4265 1.2160 1.8035 0.7777 1.4647 0.4930 1.1253 -1.2719 -0.8533 -0.8518
-0.1290 -1.9300 -0.4682 -2.5841 -1.1981 -0.9964 1.6854 1.8842 -0.2400 1.5130 -0.4992 1.8839 -0.6746 -0.4873 -2.4135 -0.5701 0.4934 1.1955 -0.8595 0.5935 -0.1867 1.7449 1.4599 0.9136 0.9214 0.4312 1.3526 -1.0474 -0.7476 -1.0408
-0.3250 -2.1059 -0.6656 -2.4726 -0.9774 -1.6353 1.9160 2.0812 -0.0973 1.8866 -0.4147 0.9949 -0.2691 0.1507 -1.7165 -0.4196 -0.0857 1.5641 -1.3635 0.0117 0.5166 1.1840 1.6912 0.8104 0.9451 0.3593 1.1149 -1.0820 -0.7105 -0.8862
-2.4694 -1.7095 -0.4757 -1.4166 0.6259 -0.9561 0.0692 1.8238 1.8047 1.8414 1.0197 -0.8044 -0.3481 -1.4789 -1.7486 1.1517 -0.7493 0.6748 -0.2376 -1.0203 0.7093 1.1088 1.7193 1.1578 1.3902 0.6818 0.2827 -1.0896 -0.9125 -0.6443
-1.6237 -0.6475 0.5944 -2.0546 0.0372 -1.8874 0.5610 1.7418 2.4015 1.4844 1.7127 -0.1782 -1.4583 -2.2877 -1.2670 1.2295 -0.6798 -0.0137 0.3702 -0.6037 -1.1391 1.3243 0.9195 1.8941 1.3558 0.7169 0.5214 -1.1886 -0.9095 -0.9259
-1.4284 -2.5252 -0.8645 -2.0165 -0.0082 -0.4633 2.3361 1.3489 -0.0907 -0.3918 1.6998 1.6715 -0.6513 -0.7394 -2.4040 0.4051 -0.5185 1.1831 0.4695 -0.8583 -0.1911 1.6664 1.6457 0.8968 0.5094 0.9755 1.2691 -0.8986 -1.0203 -1.0069
-0.8847 -2.7363 -0.5093 -2.4732 -0.6676 -0.5614 2.7508 0.6399 0.6471 -0.0135 1.7019 2.1247 -0.9406 -1.1961 -2.4548 -0.0845 1.0493 -0.1916 0.1343 -0.3397 -0.3748 1.9648 1.3833 1.2282 0.5850 1.3877 1.1044 -1.0385 -1.2223 -1.0124
-1.5714 -2.2957 -1.2214 -2.6110 0.0226 -0.6165 0.4802 2.0746 -0.2203 1.8872 0.6214 2.2326 -0.4737 -0.1618 -1.8656 0.9905 -0.8190 0.5215 -0.4260 -0.7717 0.5734 1.4970 1.6313 0.3119 1.4661 0.4823 1.0923 -1.2390 -0.7840 -0.8079
-2.0781 -1.6704 0.4043 -1.6246 0.3155 -1.2276 0.9537 1.2814 2.5890 0.7051 2.2209 -0.0598 -1.1572 -2.0421 -1.8737 1.2382 -0.0340 -0.6986 0.3843 -1.0488 -0.1978 1.5582 0.9870 1.5638 1.1348 1.1189 0.2550 -1.1143 -1.1284 -0.7546
-0.6758 -2.5082 -1.5116 -2.6918 -1.0475 -0.7184 2.3974 1.1848 -0.3133 1.2938 0.8720 2.4659 -0.7990 -0.0792 -2.0156 -0.5320 0.5641 0.9320 -0.3220 -0.7140 0.3537 1.6181 1.7453 0.4557 0.8249 1.0380 1.3478 -1.1136 -1.0552 -0.9961
-1.1006 -1.2275 0.7497 -2.6016 -0.9375 -1.3691 1.5904 -0.0781 2.2595 2.1373 1.4467 -0.0589 -0.4225 -2.1181 -1.4640 -0.2620 1.4028 -0.2853 -0.3200 0.3483 -1.2289 1.0313 0.9092 1.7879 1.0395 1.2541 0.4458 -1.0917 -0.9999 -0.8368
-1.5180 -0.5348 0.6191 -1.9468 0.0887 -1.8800 0.5067 1.6619 2.4175 1.2774 1.7163 -0.2125 -1.5228 -2.2544 -1.1756 1.3115 -0.6903 -0.0527 0.4311 -0.7168 -1.1620 1.3009 0.9066 1.8589 1.3000 0.7110 0.4854 -1.1400 -0.8883 -0.8982
-1.3826 -2.6056 -0.9611 -2.0795 -0.0947 -0.9932 2.5007 0.2993 0.6326 0.0092 2.3280 0.1719 0.1648 -0.8423 -1.7726 -0.4157 0.2904 1.3767 -0.2255 -0.9308 0.6879 1.8310 1.3033 0.8656 0.4498 1.3559 0.7707 -0.8522 -1.1035 -0.7784
-0.5761 -2.3100 -0.4458 -2.6075 -1.0627 -1.5186 2.4944 0.1114 -0.0434 0.7016 2.1546 1.8907 -0.2655 -0.4145 -2.0273 -0.1826 0.0015 1.2839 -1.1178 0.1796 0.2356 1.8823 1.0896 0.3714 0.7864 1.1400 1.2118 -1.1153 -0.8895 -0.9582

>  <OB_ATOM_TYPES> (1tphB1)
O.3 O.3 O.2 O.2 O.2 C.3 O.3 N.am C.2 P.3

>  <ENSEMBLE_RMSD> (1tphB1)
0.616 0.723 0.809 0.809 0.813 0.834 0.890 0.911 0.915 0.957 0.991 1.004 1.020 1.026 1.050 1.070 1.075 1.082 1.093 1.098 1.111 1.129 1.154 1.164 1.172 1.175 1.182 1.192 1.203 1.204 1.213 1.222 1.232 1.233 1.244 1.265 1.318 1.359 1.372 1.375 1.440 1.442 1.452 1.454 1.458 1.473 1.514 1.515 1.610 1.704

$$$$
