
 OpenBabel03071213D

 32 34  0  0  0  0  0  0  0  0999 V2000
  -14.6660   68.4630  173.7340 O   0  0  0  0  0
  -11.4940   65.2330  171.6780 O   0  0  0  0  0
  -17.2430   68.2660  178.0360 O   0  0  0  0  0
  -15.5690   66.6470  177.9620 O   0  0  0  0  0
  -12.8880   71.3990  178.2650 C   0  0  0  0  0
   -9.8430   68.1980  175.4210 C   0  0  0  0  0
  -14.2180   71.3980  179.0320 C   0  0  0  0  0
  -12.3690   69.9550  178.0720 C   0  0  0  0  0
  -10.9680   68.8510  174.5720 C   0  0  0  0  0
   -9.1660   67.0120  174.7040 C   0  0  0  0  0
  -13.9150   67.0190  169.7090 C   0  0  0  0  0
  -15.2580   70.4900  178.3270 C   0  0  0  0  0
  -13.4110   69.0900  177.3340 C   0  0  0  0  0
  -14.0640   66.1050  170.9500 C   0  0  0  0  0
  -11.0360   68.3670  173.1000 C   0  0  0  0  0
  -10.2470   66.1270  174.0530 C   0  0  0  0  0
  -15.6040   66.9480  175.1880 C   0  0  0  0  0
  -14.4510   68.3700  169.8780 N   0  0  0  0  0
  -16.1320   67.9780  175.8560 N   0  0  0  0  0
  -14.0700   66.2960  173.3860 N   0  0  0  0  0
  -18.0460   68.2720  169.2880 C   0  0  0  0  0
  -17.2510   70.2210  168.3850 C   0  0  0  0  0
  -16.7890   67.9140  169.8150 C   0  0  0  0  0
  -15.9320   69.9520  168.7760 C   0  0  0  0  0
  -18.2010   69.3070  168.4930 N   0  0  0  0  0
  -14.6890   69.0660  178.1910 C   0  0  0  0  0
  -13.3320   66.6720  172.1910 C   0  0  0  0  0
  -11.0460   66.9060  173.1060 N   0  0  0  0  0
  -14.7440   67.2670  174.0370 C   0  0  0  0  0
  -15.6700   68.6850  169.4830 C   0  0  0  0  0
  -11.8720   66.2470  172.2530 C   0  0  0  0  0
  -15.9430   67.9520  177.4860 S   0  0  0  0  0
  1 29  2  0  0  0
  2 31  2  0  0  0
  3 32  2  0  0  0
  4 32  2  0  0  0
  5  7  1  0  0  0
  5  8  1  0  0  0
  6  9  1  0  0  0
  6 10  1  0  0  0
  7 12  1  0  0  0
  8 13  1  0  0  0
  9 15  1  0  0  0
 10 16  1  0  0  0
 11 14  1  0  0  0
 11 18  1  0  0  0
 12 26  1  0  0  0
 13 26  1  0  0  0
 14 27  1  0  0  0
 15 28  1  0  0  0
 16 28  1  0  0  0
 17 19  1  0  0  0
 17 29  1  0  0  0
 18 30  1  0  0  0
 19 32  1  0  0  0
 20 27  1  0  0  0
 20 29  1  0  0  0
 21 23  2  0  0  0
 21 25  1  0  0  0
 22 24  1  0  0  0
 22 25  2  0  0  0
 23 30  1  0  0  0
 24 30  2  0  0  0
 26 32  1  0  0  0
 27 31  1  0  0  0
 28 31  1  0  0  0
M  END
>  <MOLID> (1uvsB1)
1uvsB1

>  <SMILES_CANONICAL> (1uvsB1)
O=C(N[C@@H](C(=O)N1CCCCC1)CCNc1ccncc1)CNS(=O)(=O)C1CCCCC1	

>  <FINGERPRINT> (1uvsB1)
0000000000000010000000001000001000100101000000000011010000000000000000000001000001000000000000000000010100110000001001100000000000100000000001001000000000000000000000000000000000100000100000000000000000000010100000000000000000100000000000000000000000001000000000000010000000000000000000000000000000000000000010011110000000000000001000000010010000000100010100000000001100110000000000000000011000000000110010000000001000000000000001000010000000000001100000000000001000000001000000000000000000000100100000000000010000000000000001000000000000000000000000000000000000000000000000000000001000100000001000000000000000000000000000000100011000000001011000000001010000000000000000001011100000001100100001100000000100100000100000000000000100000011001000100001010000000000001110000000001000000000000000000000000000000000000000000000000000000000000000000000000010000000000000000001000000000000000000001000110000001000000000000000000000000000000000000000011000000000000100010010000000000000010000000000000000000001100000010010001001100000

>  <MACCS166> (1uvsB1)
000000000000000000000000000000011000000000001000001011100101100110100000101101111100110101110110011101010100011100001111110100011111101111010100111100101111011010111000

>  <OB_MW> (1uvsB1)
465.241

>  <OB_logP> (1uvsB1)
3.5065

>  <OB_PSA> (1uvsB1)
128.88

>  <OB_MR> (1uvsB1)
128.005

>  <OB_ATOMIC_CHARGES> (1uvsB1)
-0.2716951411 -0.273018724 -0.15615771 -0.15615771 0.0001095385 0.0035128289 0.0018014407 0.0018014407 0.0215610373 0.0215610373 0.1144864002 0.0252406539 0.0252406539 0.0543467167 0.0934476963 0.0934476963 0.2012981138 -0.2374315947 -0.0721618943 -0.1965038996 0.100207885 0.100207885 0.0367549872 0.0367549872 -0.2422308858 0.14722711 0.1730270409 -0.2781590714 0.2614794579 0.0684007292 0.2455511 0.0560501944

>  <MCT_HBD> (1uvsB1)
3

>  <MCT_HBA> (1uvsB1)
9

>  <ENSEMBLE_TOTAL> (1uvsB1)
48

>  <ENSEMBLE_COORDS> (1uvsB1)
-0.5995 0.3170 -0.0398 2.5725 -2.9130 -2.0958 -3.1765 0.1200 4.2622 -1.5025 -1.4990 4.1882 1.1785 3.2530 4.4912 4.2235 0.0520 1.6472 -0.1515 3.2520 5.2582 1.6975 1.8090 4.2982 3.0985 0.7050 0.7982 4.9005 -1.1340 0.9302 0.1515 -1.1270 -4.0648 -1.1915 2.3440 4.5532 0.6555 0.9440 3.5602 0.0025 -2.0410 -2.8238 3.0305 0.2210 -0.6738 3.8195 -2.0190 0.2792 -1.5375 -1.1980 1.4142 -0.3845 0.2240 -3.8958 -2.0655 -0.1680 2.0822 -0.0035 -1.8500 -0.3878 -3.9795 0.1260 -4.4858 -3.1845 2.0750 -5.3888 -2.7225 -0.2320 -3.9588 -1.8655 1.8060 -4.9978 -4.1345 1.1610 -5.2808 -0.6225 0.9200 4.4172 0.7345 -1.4740 -1.5828 3.0205 -1.2400 -0.6678 -0.6775 -0.8790 0.2632 -1.6035 0.5390 -4.2908 2.1945 -1.8990 -1.5208 -1.8765 -0.1940 3.7122
-0.5941 0.2254 0.5669 2.2500 -3.3115 -1.1612 -3.0534 0.5146 4.7210 -1.5653 -1.4891 5.0879 0.8019 3.3709 4.6520 4.0639 0.3812 1.0348 0.9146 2.3074 5.7232 0.6217 2.7436 3.2859 2.7030 0.7763 0.4922 4.9576 -0.2483 -0.0154 -0.0783 -1.3191 -3.6550 -0.2714 1.3667 5.6948 -0.6014 1.8516 3.2736 -0.1356 -2.2564 -2.4705 2.4795 0.3035 -0.9308 4.2637 -1.3972 -0.7227 -1.0175 -1.5782 2.1175 -1.4096 -1.1879 -4.2117 -2.0532 -0.6919 2.6859 -0.1272 -1.9611 -0.0518 -2.9300 1.1146 -6.5841 -2.5130 2.3164 -4.7318 -2.3836 0.0015 -6.0732 -1.8965 1.1628 -4.0238 -3.0253 2.3136 -5.9218 -0.4700 0.7592 4.3170 0.5437 -1.6191 -1.2823 2.8940 -1.0798 -1.0792 -0.5800 -0.9778 0.8078 -1.8436 0.0174 -4.7266 1.9677 -2.1141 -1.1592 -1.9122 -0.2950 4.3407
-1.1106 1.1701 -0.7956 1.9267 -2.4600 0.2120 -2.2523 2.1343 4.2720 -3.2674 -0.1178 3.7593 1.9772 0.0731 5.2047 4.3260 1.9221 -0.3608 0.8196 -0.6760 5.8300 1.8158 0.1578 3.7019 2.9027 2.0416 -0.8673 4.4660 0.7707 0.6146 0.5013 -2.0850 -3.5172 -0.5072 -0.0507 5.4552 0.5041 0.8242 3.3483 0.1573 -2.4036 -2.0808 2.4103 0.7247 -1.4344 3.9366 -0.5203 0.0229 -2.3100 0.0683 0.9732 -0.7164 -1.9683 -4.2962 -2.0111 1.1691 1.9070 -0.5862 -1.0227 -0.2262 -3.5620 0.2373 -4.8094 -1.8295 1.5809 -4.3153 -2.8189 -0.8751 -4.7212 -0.8768 0.4453 -4.2096 -3.0922 1.5092 -4.5958 -0.6635 0.0660 3.9496 0.4513 -1.2033 -1.2106 2.5844 -0.3380 -0.4615 -1.2720 0.1683 -0.1067 -1.4109 -0.7768 -4.3869 1.7239 -1.4292 -0.4285 -2.2161 0.8637 3.5732
-1.5671 0.8454 0.0426 1.9646 -2.4904 -0.1419 -2.2234 1.6238 5.0251 -2.6208 -0.8602 4.8235 2.5052 0.8237 5.2654 3.5518 1.6731 0.7463 1.7416 -0.2501 6.0101 2.0601 0.9008 3.8209 2.1854 1.7405 0.0901 4.0024 0.2345 0.9247 -0.0014 -1.2044 -3.5132 0.2476 -0.0310 5.9058 0.5701 1.1457 3.7316 -0.1649 -1.9381 -2.2033 2.1765 0.9516 -1.2063 3.9382 -0.5181 -0.3927 -2.0158 -0.6726 1.8659 -1.1361 -1.4980 -4.3624 -2.1624 0.5324 2.7016 -0.5565 -1.2423 0.0928 -1.7073 1.7045 -6.0614 -3.3329 0.3059 -6.7346 -1.1443 0.7824 -5.2678 -2.8244 -0.8144 -5.8998 -2.8260 1.4942 -6.8289 -0.1948 0.0563 4.4567 0.2760 -1.0458 -1.0673 2.6122 -0.4129 -0.9674 -1.3612 -0.2354 0.5843 -1.7241 -0.5457 -5.1748 1.6845 -1.4060 -0.6512 -1.9528 0.3504 4.3858
-2.1459 0.1585 -1.0262 1.9904 -2.1310 0.5612 -2.4043 1.9693 4.0713 -3.1499 -0.4411 4.1128 2.1575 0.5239 4.4809 4.0024 1.8782 0.0985 1.2444 -0.3642 5.2997 1.7398 0.5347 3.0264 2.5944 1.8958 -0.4657 4.3376 0.5133 0.6709 0.5067 -1.9625 -3.3579 -0.2012 0.0584 5.1520 0.3005 0.9808 2.8909 0.2015 -2.3465 -1.9277 2.4129 0.7812 -1.4784 4.1164 -0.5710 -0.3690 -2.5511 -0.6593 1.1863 -0.7282 -1.8097 -4.1040 -2.4923 0.6464 1.8696 -0.5343 -1.1347 0.0476 -1.2553 1.8167 -4.0157 -3.2193 0.8891 -4.5888 -0.6274 0.6338 -3.9819 -2.6704 -0.4931 -4.5597 -2.5839 1.9848 -4.3148 -0.6176 0.0801 3.6937 0.4428 -1.1631 -1.0145 2.7691 -0.5005 -0.9008 -1.7386 -0.4738 -0.0586 -1.3709 -0.5904 -4.2268 1.7898 -1.3167 -0.3391 -2.3156 0.6125 3.5676
-0.8287 1.5319 -0.5977 1.4779 -3.0438 -0.7327 -2.7008 -0.6620 4.0967 -0.2991 -1.1480 3.4981 1.1240 1.7463 7.0446 4.0358 0.7394 0.0633 0.9667 2.5098 5.7483 -0.1764 1.0809 7.4404 3.1882 1.3343 -1.0436 4.7610 -0.5038 -0.4086 -1.0721 -2.0726 -3.1580 0.4756 1.5928 4.6505 -0.6936 0.1827 6.3367 -1.0098 -2.0726 -1.6508 2.3729 0.3031 -1.8034 3.8331 -1.5328 -1.0265 -0.2590 1.1734 1.6944 -2.2409 -1.3342 -3.5932 -1.5066 0.8785 2.4284 -0.2461 -0.6035 0.1140 -1.1031 0.2632 -6.6900 -2.9363 1.3763 -6.0198 -1.1494 -0.5836 -5.6518 -3.1056 0.5309 -4.8084 -1.9938 1.2847 -6.9046 -0.8376 0.9320 5.0249 0.0790 -1.1360 -1.1841 2.4954 -1.0189 -1.2211 -0.4980 0.7428 0.2803 -2.1860 -0.4365 -4.6441 1.4033 -1.8528 -1.0307 -1.3702 -0.2021 3.7486
1.2052 -0.0169 0.5869 1.6850 -3.7036 -0.7029 -0.2157 -1.0816 4.8899 0.7748 0.7063 3.4176 -2.4794 3.7627 5.0781 5.0418 -0.2546 -0.2599 -2.9681 3.0840 3.8163 -2.1889 2.7392 6.1539 4.4816 0.0993 -1.6194 5.3837 -1.7264 -0.1934 -0.0336 -1.3799 -3.9923 -1.9477 2.0816 3.3183 -1.1998 1.7035 5.6661 0.0648 -2.3652 -2.8489 3.3317 -0.7962 -2.0415 4.2583 -2.6262 -0.6671 -1.1074 -0.1552 1.1920 -1.4269 -1.0500 -4.2249 -1.0826 -0.8503 2.4951 -0.1691 -1.4816 -0.5755 -3.8409 1.6324 -3.7572 -1.8812 2.6450 -4.1830 -3.3087 0.4047 -3.8473 -1.1568 1.3547 -4.3350 -3.1377 2.8013 -3.9089 -1.6540 1.0349 4.3757 0.7464 -1.7064 -1.6717 3.0947 -1.8984 -1.1271 0.1126 -0.5458 0.4021 -1.8939 0.2478 -4.1302 1.8735 -2.5727 -1.1485 -0.3617 -0.0865 3.8425
-1.4572 0.9064 -0.4953 2.0763 -2.1384 0.6198 -2.7427 2.0920 4.1935 -3.5513 -0.2976 4.1195 1.7306 0.4471 5.0007 4.5890 0.9196 -2.0224 0.6994 -0.4003 5.7164 1.4423 0.5253 3.5160 3.1166 0.9456 -2.3851 4.8788 -0.2120 -1.0547 0.8438 -1.7837 -3.2640 -0.7032 0.1019 5.4480 0.0415 1.0430 3.2671 0.4873 -2.2638 -1.8765 2.2628 1.0373 -1.1336 3.9913 -0.1102 0.1723 -2.4520 -0.4458 1.2351 -0.3444 -1.7616 -4.0945 -2.6658 0.8118 1.9741 -0.5501 -1.1669 0.0273 -1.4110 1.7433 -3.9595 -3.1938 0.5452 -4.6202 -0.6200 0.6633 -3.8916 -2.4497 -0.7410 -4.5697 -2.7330 1.7200 -4.3271 -0.9792 0.1606 3.9581 0.5406 -1.1022 -0.9117 2.5956 -0.0323 -0.2086 -1.4434 -0.1254 0.1676 -1.1645 -0.6509 -4.1850 1.8067 -1.1714 -0.0917 -2.6415 0.7412 3.6759
-1.6606 1.0480 0.3875 1.6991 -2.3772 0.3504 -2.5577 1.4016 5.4576 -2.8102 -1.0594 4.9583 2.1971 0.8896 5.6721 4.1919 1.0363 -2.1149 1.4787 -0.2540 6.3566 1.7821 1.0031 4.2205 2.7845 1.5827 -1.9659 4.7336 0.4790 -0.8143 0.0307 -0.9379 -3.1662 -0.0218 -0.1131 6.2235 0.2838 1.1825 4.1145 -0.2644 -1.7376 -1.9172 2.0524 1.0397 -0.7536 3.8309 -0.6009 -0.2443 -2.3716 -0.5272 2.0718 -0.8010 -1.4076 -4.2549 -2.3831 0.5984 3.0241 -0.8220 -1.1170 0.3791 -1.3540 1.6060 -6.2819 -2.8456 0.0729 -6.9668 -0.8336 0.7915 -5.3516 -2.3795 -0.9370 -5.9798 -2.3728 1.2670 -7.1369 -0.4370 0.0203 4.7699 0.1031 -0.9132 -0.7051 2.4289 -0.3375 -0.5008 -1.5841 -0.0763 0.8720 -1.3676 -0.5499 -5.1826 1.4745 -1.3015 -0.2014 -2.2047 0.2287 4.6805
-0.8425 1.2132 -0.6340 2.4235 -2.3536 0.4122 -3.2955 2.1084 3.7874 -3.5961 -0.3648 3.4265 1.5246 -0.4118 4.2294 5.4170 0.8166 -1.1543 1.2478 1.0512 3.9531 0.3878 -1.0483 5.0009 5.4511 -0.4079 -0.2586 4.0417 0.9941 -1.7688 0.6216 -1.0879 -3.3158 -0.0790 1.2460 3.2494 -0.9186 -0.8877 4.2528 0.8738 -1.8627 -2.0430 4.3537 -0.3426 0.7890 2.9828 1.0471 -0.6840 -2.1916 -0.1533 0.8182 -0.6703 -1.4609 -3.8575 -2.4133 1.0540 1.6337 -0.1100 -0.9052 -0.0292 -2.4978 1.7161 -4.0163 -4.0251 0.0771 -4.1875 -1.4760 0.8535 -3.9187 -3.0019 -0.9959 -4.0707 -3.8145 1.3551 -4.1564 -1.2049 0.5763 4.0066 1.0354 -0.8919 -0.8994 3.0633 -0.1292 0.1654 -0.9877 0.1597 -0.0220 -1.7321 -0.5762 -3.9279 2.2392 -1.2310 -0.0552 -2.8066 0.8425 3.2744
0.4880 1.2031 1.1307 0.7506 -2.9719 -1.3400 -2.5911 -1.1318 5.2105 -0.1269 -1.6068 5.4209 -0.1412 3.5078 6.5355 4.4427 -0.5056 -1.1600 -1.5619 3.2284 6.0895 0.4774 2.3041 7.2166 3.3133 0.5057 -1.0910 4.4010 -1.3599 -2.4117 -1.5761 -0.0171 -2.7276 -1.6411 1.9855 5.2283 0.4164 1.0864 6.3176 -1.4088 -0.9425 -1.5445 2.2261 0.2438 -2.1137 3.0500 -2.0205 -2.6190 0.3059 -0.4992 2.8055 -1.1057 -0.6899 -3.9230 -0.9876 -0.1800 3.4384 -0.1111 -0.9580 0.5126 -1.7886 1.7075 -6.6066 -1.5770 -0.3097 -7.5744 -1.5762 1.2206 -5.3763 -1.3322 -0.9948 -6.2778 -1.7984 0.9542 -7.7539 -1.0199 0.8038 5.9402 -0.0515 -0.7424 -0.9111 1.9475 -1.1770 -2.2048 0.2252 0.0372 1.4075 -1.3553 -0.2029 -5.1913 0.9163 -1.7601 -1.4734 -1.2100 -0.7181 5.0459
0.7831 0.7998 -0.1175 2.4693 -3.7074 -1.6395 0.4171 2.8610 3.5196 -1.1726 2.2692 1.6524 -2.8882 1.4731 6.7327 5.6926 -0.8840 0.1016 -3.5133 2.2378 5.5848 -2.1297 0.2635 6.2295 4.3458 -0.1922 0.0120 5.6242 -2.3178 -0.3912 -0.3993 -1.1833 -3.2791 -2.4819 2.6167 4.5426 -1.0720 0.6796 5.2303 0.1502 -2.2259 -2.3399 3.7507 -0.3348 -1.3759 4.9695 -2.4139 -1.7577 -0.1927 -0.5009 1.6624 -1.8439 -1.1649 -3.1757 0.3673 0.4432 2.6477 0.9372 -1.5158 -0.1573 -2.8408 1.5038 -5.4695 -4.4141 1.4099 -3.8672 -2.1294 0.5053 -4.9288 -3.7299 0.3049 -3.1443 -4.0129 1.9944 -4.9517 -1.7047 1.4053 4.0602 1.2841 -1.6174 -1.5518 3.6919 -1.7318 -1.7649 0.5713 -0.2999 0.3837 -2.5780 -0.1159 -3.6949 2.5234 -2.4784 -1.6264 -0.4743 1.9167 2.8738
-1.2776 -2.3896 -0.2482 2.3603 -1.0398 1.1795 -3.1310 -0.8357 4.5875 -0.7337 -0.9669 5.3651 -0.1831 3.6087 3.9221 4.8857 -1.9729 -2.8627 0.2654 2.5949 2.8912 -1.6370 3.4004 4.2903 3.7307 -1.0317 -3.1441 5.1012 -2.1320 -1.3705 0.8075 1.5534 -2.1209 0.0329 1.1856 3.3926 -1.8830 1.9841 4.7679 1.0922 1.1265 -0.7004 2.4715 -1.4744 -2.4233 3.8252 -2.5749 -0.6803 -2.1019 -1.3057 1.7207 -0.6192 1.7470 -2.2992 -1.3068 -1.5853 2.9347 -0.2332 -0.4613 0.5178 -3.4307 1.0486 -4.4983 -1.6412 0.1174 -5.4877 -2.7092 1.5171 -3.4698 -0.7152 0.5695 -4.4160 -2.9202 0.3169 -5.5414 -1.4297 0.9731 3.7323 0.7784 -0.3421 -0.5041 2.7354 -1.6818 -1.0119 -1.1641 -1.4738 0.5594 -1.2827 1.2586 -3.4091 2.0244 -1.0479 -0.0045 -1.7112 -0.6861 4.3315
-2.0193 0.9805 0.6379 1.7112 -2.1030 -0.2518 -2.0282 1.2176 5.7914 -2.2507 -1.2416 5.3008 2.5972 -0.6114 3.5571 3.5194 2.5311 0.1407 2.1398 0.8167 3.7665 2.0347 -1.5213 4.6279 4.0210 1.1456 0.4965 2.5600 2.5385 -1.0299 -1.8034 -0.9009 -2.6299 0.6305 0.9145 3.8307 0.5223 -1.4602 4.6291 -0.6778 -1.5722 -1.8768 3.4966 0.0601 -0.4204 1.4973 1.4695 -0.8844 -2.2388 -0.6610 2.3878 -1.2816 0.1615 -3.4680 -2.1430 0.4466 3.3550 -0.8563 -1.0241 0.4981 -2.5728 -0.5597 -6.8205 -0.6914 0.6390 -7.0923 -2.4754 -0.5459 -5.4834 -0.4462 0.7349 -5.6288 -1.6789 0.0358 -7.6751 0.0511 -0.0401 4.8541 -0.1853 -0.7089 -0.7375 2.0622 0.1648 -0.5861 -1.7007 -0.1118 1.0971 -1.3492 0.1156 -4.8481 1.2808 -0.9771 -0.4989 -1.7253 0.0670 4.9612
-1.1323 -0.0703 0.1951 2.1275 -3.6173 -0.6389 -3.1893 -1.0296 4.1890 -0.9541 -0.5414 5.2555 -1.2010 3.8671 3.2304 5.0922 0.3674 -1.5476 -0.4223 2.8645 2.4040 -2.5997 3.3727 3.5356 5.3655 -1.1214 -1.5713 3.7105 0.6442 -2.1007 0.1977 -1.5496 -3.6580 -0.3955 1.5105 3.0805 -2.5704 2.0051 4.1848 -0.0164 -2.4893 -2.4937 4.2966 -1.8790 -0.8085 2.6633 -0.1163 -1.3127 -1.8068 -1.8314 1.6679 -1.0079 -0.7796 -3.8970 -1.0189 -1.4929 2.8692 -0.2524 -2.2044 -0.0914 -0.2046 2.4989 -2.4606 -2.4425 2.3916 -2.6304 -0.0348 1.2869 -3.0075 -2.4146 1.0252 -3.2163 -1.4228 3.0945 -2.2499 -1.8080 1.0176 3.3233 0.5643 -1.8863 -1.2353 2.9641 -1.5376 -1.2682 -1.0309 -1.2473 0.5254 -1.1916 0.4890 -3.3752 1.9456 -2.4501 -0.9838 -1.8106 -0.5916 4.0865
0.7837 1.1619 0.7103 0.7316 -3.0724 -0.8840 0.3925 -1.2202 5.1405 1.4886 0.5309 3.6930 -1.7000 2.1846 7.7486 4.4376 -0.1021 -0.6323 -0.2893 2.5880 7.3730 -2.5309 1.9328 6.5094 3.6269 0.6467 -1.6704 4.6187 -1.5559 -1.0198 -1.8845 -0.1803 -2.7886 0.3588 1.5465 6.4866 -1.8931 0.8621 5.6498 -1.3084 -1.3286 -1.9932 2.3328 -0.0536 -2.0398 3.3313 -2.2272 -1.4537 -1.1158 0.7300 2.0952 -1.0007 0.1388 -3.8913 -0.8776 -0.3173 3.1048 -0.5680 -0.6672 0.2310 -3.2351 0.1209 -6.7978 -1.1322 0.1673 -7.5888 -2.8316 0.1072 -5.5194 -0.5348 0.1459 -6.2282 -2.3945 0.1561 -7.8814 -0.4828 1.2561 5.2563 -0.1588 -0.8502 -1.1372 2.1925 -1.3380 -1.3803 -0.1864 0.4483 0.9489 -1.4129 0.1135 -5.2101 0.9401 -1.8867 -1.1356 0.3025 -0.0375 4.3050
0.9185 0.4819 1.2600 1.9590 -3.7317 -1.1590 -2.7223 -1.1742 4.9311 -0.6122 0.1241 5.3796 -2.3873 2.9014 1.3440 5.5393 -0.4872 -0.9104 -3.3200 1.7088 1.3733 -1.9669 3.3017 2.7426 4.3150 0.3960 -1.0424 5.5584 -1.5764 -1.9602 -0.7173 -1.4308 -2.5689 -2.7087 0.5438 2.1228 -1.3162 2.1370 3.4581 -0.4264 -2.1703 -1.2846 3.0917 -0.3288 -1.5715 4.3149 -2.4425 -1.9096 0.6351 -1.0884 3.0426 -1.7271 -0.4252 -2.3080 -0.8131 -1.2934 3.2273 0.7999 -1.7897 0.7752 -3.0658 2.7171 -3.5480 -0.9089 2.6833 -4.1786 -2.9915 1.5092 -2.9714 -0.6678 1.3511 -3.5649 -2.0209 3.3488 -4.1746 -2.2626 0.9581 3.5096 0.8505 -1.6561 -0.6595 3.1713 -1.7585 -1.3422 0.7870 -0.6880 1.6048 -1.7357 0.7828 -2.9761 2.0249 -2.5049 -1.0904 -1.5947 -0.3988 4.4495
1.4501 -0.1824 1.9912 2.0512 -3.5179 -1.6212 -3.8047 -0.5171 3.0452 -1.8672 -0.6219 4.6585 -2.5026 3.9284 1.7394 6.6555 -1.6395 -0.7418 -2.4748 3.7270 3.2403 -1.5918 2.9401 1.0437 5.6364 -0.5267 -0.8650 6.1646 -2.8958 -1.4318 -0.0064 0.3804 -1.3081 -2.8170 2.3003 3.6142 -1.9866 1.5228 1.3968 0.6614 -0.9186 -1.7037 4.2888 -0.9779 -0.3460 4.7939 -3.3061 -0.9282 -0.2059 -1.8018 2.5943 -0.3899 1.0974 -2.5061 -1.4995 -1.2349 2.1725 0.9395 -1.9075 0.5168 -3.1876 2.7852 -4.0949 -4.0788 1.0594 -2.9652 -1.9472 2.5250 -3.6570 -2.7619 0.6294 -2.4249 -4.2998 2.0487 -3.7719 -1.9209 1.3081 2.8955 1.6246 -1.3650 -0.6280 3.8632 -2.1979 -1.0074 0.8091 -1.1815 1.6819 -1.7103 1.3831 -2.7940 2.5065 -2.4867 -1.1285 -2.3921 -0.3560 3.3333
1.0387 1.0839 1.2873 -0.4032 -2.3129 -0.9138 -0.7354 -1.8548 5.0676 1.1671 -0.7498 3.8473 -0.7826 3.3849 6.4126 4.3285 -1.3718 -0.7780 -1.6723 2.2428 6.8555 0.6376 2.9077 6.1974 3.5042 -0.1080 -0.6257 3.7798 -2.3198 -1.8246 -1.2114 1.3191 -3.0207 -1.6422 1.1057 5.8567 0.6774 1.7930 5.1749 -1.4891 0.2059 -2.0381 2.3397 -0.0412 -1.5921 2.2871 -2.5230 -1.6601 -1.0077 1.1068 2.5195 -0.3895 0.8324 -4.1133 -1.2640 -0.1697 3.2139 -0.8813 0.2113 0.3097 -2.6378 -0.0252 -6.8664 -1.0330 -1.5988 -6.8315 -2.1176 0.6327 -5.8206 -0.3501 -0.9920 -5.6581 -2.1085 -1.1680 -7.4118 -0.2243 0.6482 5.5850 -0.3674 0.0909 -1.0330 1.5662 -1.2693 -1.5580 -0.1549 0.8011 1.3219 -0.9261 0.1200 -5.1689 0.2407 -1.2902 -1.1452 -0.1683 -0.6921 4.4106
0.5455 0.8079 0.3502 1.8068 -3.7993 -0.8287 -2.4698 -0.8419 4.7787 0.0014 -0.6854 5.2649 -2.8633 3.8615 5.8471 5.0404 -0.4688 -2.3526 -1.8726 3.1732 6.7629 -2.4921 3.6660 4.3925 5.2574 -1.9576 -2.5023 3.7789 -0.0266 -3.0605 -0.7645 -1.8390 -3.0337 -1.7271 1.7065 6.4151 -2.3786 2.1924 4.0623 -0.6262 -2.3010 -1.6027 4.0412 -2.7810 -2.1280 2.5806 -0.9080 -2.7713 0.5228 -0.3115 2.4677 -1.8396 -0.8720 -3.1297 -0.8727 -0.1036 2.8987 0.4696 -1.5157 0.4215 -0.6319 1.3985 -5.7438 -2.3148 2.4529 -4.6926 -0.7496 0.3006 -4.9841 -2.5538 1.3170 -3.7629 -1.4078 2.5232 -5.6152 -1.3516 1.5270 4.9563 0.6229 -1.7081 -0.9953 2.8675 -1.9840 -1.8409 0.4957 -0.2498 0.9702 -1.7370 0.2601 -3.9186 1.8047 -2.6281 -1.2037 -1.1825 -0.2051 4.5786
0.5980 0.9369 0.2266 2.2100 -3.6120 -0.5009 0.5448 0.8308 4.9752 0.2388 2.1829 2.8722 -3.9360 2.0204 6.3487 5.8453 -1.5116 -2.8063 -3.1283 3.1876 5.8200 -4.0215 0.9059 5.3258 5.2086 -0.3080 -2.1439 5.6859 -2.7868 -2.0009 -0.0246 -0.9506 -3.1801 -1.7655 2.7416 5.3325 -2.6392 0.4579 4.8924 0.3842 -2.0607 -2.2435 3.7765 -0.5882 -1.7346 4.8343 -2.6131 -0.7587 -1.0358 -0.2143 1.5484 -1.4665 -0.9693 -3.3335 -0.5025 -0.2918 2.9226 0.4769 -1.3760 0.0941 -2.1138 1.9400 -5.4557 -4.0027 1.5553 -4.3003 -1.4745 0.9040 -4.8957 -3.4240 0.3843 -3.5867 -3.4050 2.3067 -5.1702 -1.8683 1.6220 4.3073 1.2379 -1.5026 -1.1276 3.6308 -1.8621 -1.0525 0.1156 -0.1355 0.5800 -2.1460 0.0970 -3.8925 2.3874 -2.4452 -0.8483 -0.2209 1.1545 3.7863
1.4850 0.1287 2.1738 0.4880 -3.0527 -1.4020 -2.5527 -1.0057 5.5632 -0.0761 -0.9308 6.0380 -2.4623 3.6567 4.4035 4.0817 -0.7169 -3.5525 -1.5700 3.3691 5.5920 -2.0476 2.8276 3.2065 4.1103 -2.2201 -3.3846 4.1057 -0.0183 -2.2103 -0.6338 0.7464 -1.8334 -1.5553 1.8924 5.9251 -2.0657 1.3516 3.5437 -0.8053 -0.4571 -0.9358 3.0468 -2.7332 -2.4341 3.1225 -0.5972 -1.2110 0.4910 -1.7297 3.3068 -0.2039 0.3084 -3.1475 -0.9027 -1.3735 3.6326 0.3308 -1.4789 0.9515 -1.9709 2.4233 -5.5490 -1.5567 0.4724 -6.5854 -1.4280 2.0095 -4.3954 -0.9291 -0.1281 -5.3787 -2.0396 1.6698 -6.6940 -1.1570 1.0575 4.7221 0.5212 -0.8885 -0.3493 2.3236 -1.6746 -1.7635 0.8258 -0.9030 2.1012 -0.8727 0.6717 -4.2993 1.0973 -2.0039 -1.1931 -1.2003 -0.6730 5.1589
0.2354 0.6224 0.8064 1.6299 -3.6779 -0.3507 0.6925 -0.0830 5.7477 1.1657 1.2500 3.6667 -3.8337 2.5736 4.4911 4.6153 -0.6359 -3.1074 -3.5758 1.4886 5.5160 -2.5891 3.3936 4.2207 3.1971 -0.1135 -2.9982 4.9876 -1.6243 -2.0215 -0.5570 -1.8310 -3.1100 -2.4077 0.6130 5.1185 -1.4447 2.5060 3.7794 -0.7267 -2.3813 -1.7145 2.5642 -0.4322 -1.6611 3.8504 -2.5641 -1.6779 -1.2124 -0.4757 2.3615 -1.6749 -0.9636 -3.4134 -0.3776 -0.8073 3.5324 -0.1975 -1.6448 0.5472 -0.1254 1.8476 -5.1803 -2.1492 2.5426 -4.4914 -0.2809 0.6293 -4.6434 -2.4661 1.2416 -3.8468 -1.0569 2.8534 -5.1151 -1.1817 1.4472 4.8249 0.2854 -1.7334 -0.8046 2.6143 -1.8601 -1.4047 -0.2999 -0.4196 1.1723 -1.5010 0.3088 -3.9232 1.5655 -2.5343 -0.7976 0.2550 0.4641 4.4769
-0.0477 -2.5343 -0.1049 3.5920 -0.3855 0.5477 -3.9684 0.7524 2.1337 -2.8229 -0.8664 3.6943 -1.4474 4.3103 4.0509 5.0844 -4.1696 -2.3920 -1.5878 3.2363 5.1080 -0.7824 3.7526 2.8108 3.6635 -3.7810 -2.7494 5.4405 -3.7249 -0.9880 0.9213 0.9929 -2.8311 -2.3667 2.0535 4.5745 -1.5633 2.5769 2.2641 1.9599 0.8255 -1.7470 3.4126 -2.3043 -2.5092 5.1605 -2.2486 -0.7956 -0.5587 -1.1156 1.7562 -0.2422 1.6665 -2.2836 -1.7802 -0.3726 1.3900 0.9046 -0.4172 0.0334 -3.8465 1.3841 -1.8703 -3.2976 -0.0970 -3.4687 -2.5770 1.7801 -1.6981 -1.8528 0.2430 -3.3968 -4.2519 0.4256 -2.7654 -1.7362 1.4930 3.3124 1.8203 -0.5259 -1.0784 3.7912 -1.9438 -1.1556 0.0997 -1.4523 0.4522 -1.5204 1.1847 -2.4952 3.1583 -0.9075 -0.4796 -2.7586 0.1691 2.6807
0.7674 1.2752 1.5252 0.8096 -2.9025 -0.9630 -3.0001 -0.8344 4.9571 -0.6919 -1.6616 5.5337 -0.2326 3.4010 6.8635 3.4306 -0.8899 -4.2494 -1.6694 3.2770 6.4031 0.2347 2.1261 7.5332 4.1466 -1.8866 -3.3624 2.9592 0.3208 -3.4673 -0.9371 0.4750 -2.5532 -1.8596 2.0788 5.4979 0.0833 0.9458 6.5973 -0.9663 -0.5646 -1.4571 3.2588 -2.3681 -2.2305 2.6844 0.0316 -2.0028 0.2726 -0.4870 3.0745 -0.3806 -0.1124 -3.7566 -1.0007 0.0378 3.6011 0.0543 -0.7914 0.7321 -2.1885 1.4507 -6.5295 -1.4655 -0.5450 -7.2680 -1.6675 1.2694 -5.3076 -0.8447 -0.8928 -5.9625 -2.1015 0.5458 -7.5579 -1.3556 0.8051 6.1471 0.3260 -0.5629 -0.6673 2.3183 -1.3561 -1.7962 0.3934 0.1214 1.7078 -0.9722 0.0336 -4.9958 1.1676 -1.7357 -1.1235 -1.5727 -0.6040 5.0770
0.3151 -2.4161 0.6727 3.9091 -0.3435 0.2163 -3.4790 -0.2600 3.7290 -1.3700 -0.6310 5.0631 -2.2336 4.3988 3.1474 4.0066 -4.5836 -2.4617 -2.1478 3.8991 4.5746 -1.3826 3.5583 2.2186 2.6959 -3.8556 -2.6909 4.6776 -4.1362 -1.1779 1.0343 0.7499 -2.9187 -2.4929 2.4276 4.6686 -1.7771 2.0998 2.3090 1.7911 0.8779 -1.6181 2.8685 -2.3512 -2.5944 4.8170 -2.6283 -1.1307 0.1792 -0.8659 2.4994 -0.0617 1.6981 -2.9208 -1.2913 -0.7573 2.4897 1.1275 -0.2523 0.4163 -3.6476 2.0769 -3.3777 -3.2361 -0.1197 -3.6093 -2.3522 2.3748 -3.2025 -1.7714 0.0540 -3.4217 -4.1380 0.8095 -3.5699 -1.6280 1.6039 3.7327 1.7588 -0.4352 -0.8696 3.5266 -2.0112 -1.3477 0.5243 -1.2859 1.1007 -1.3606 1.3151 -3.1957 3.1814 -0.8867 -0.6136 -2.0431 -0.1241 3.8827
2.0730 1.8310 0.2522 1.6119 -2.1393 0.8436 -0.1868 2.0755 5.2733 -1.8521 2.9058 3.5699 -1.6955 -2.4420 4.6566 5.1318 0.5601 -0.4393 -2.8204 -1.4489 4.8575 -0.8716 -2.0796 3.4396 4.5376 0.4453 -1.8276 5.4074 -0.8038 0.1596 -0.6097 -1.0509 -2.7520 -2.2963 -0.0317 4.9482 -0.3143 -0.6791 3.5783 -0.3257 -1.4207 -1.3161 3.3179 -0.4561 -1.8815 4.2739 -1.7944 -0.0338 0.0530 2.3737 1.4130 -1.8924 -0.3767 -2.8394 0.4377 2.0161 2.7909 0.2866 0.3376 0.2315 -4.4547 0.2407 -5.3563 -2.4841 0.5451 -6.3925 -3.8768 -0.0358 -4.1777 -1.7046 0.2825 -5.1550 -3.7736 0.5198 -6.5152 -1.4332 0.3290 3.7515 0.7900 -0.5569 -0.7786 3.1145 -1.1854 -0.6452 0.9333 1.5076 0.5681 -2.4295 -0.0505 -4.0714 1.8525 -1.4063 -0.1141 -0.7999 1.9880 3.9616
-2.1344 1.8485 0.9591 0.7157 -1.8938 -0.3165 -1.1769 1.1720 6.1067 -2.2668 -0.9636 5.3210 3.0719 -0.4352 4.5268 3.3618 1.8634 0.2429 2.2739 -1.5267 5.2070 2.2996 0.1549 3.3664 1.8888 2.2227 0.1960 3.5564 0.3607 0.1687 -1.7992 0.0091 -2.9905 0.9161 -1.0222 5.6455 0.9599 0.6868 3.8293 -1.7047 -0.8524 -1.7511 1.2255 1.6088 -1.0219 2.8546 -0.2180 -1.0463 -2.6161 0.1833 2.6255 -0.7049 -0.3320 -3.8783 -1.9779 1.0011 3.6732 -1.4799 -0.3560 0.6203 0.3081 -0.6789 -7.3485 -1.9351 -0.5588 -7.3816 0.3685 -0.5310 -6.0174 -2.0282 -0.4021 -5.9059 -0.8532 -0.7053 -8.0791 0.1493 -0.4146 4.4849 -0.9013 -0.1470 -0.6825 1.4609 0.1774 -1.0689 -2.0479 0.6823 1.3290 -0.8548 -0.3973 -5.2484 0.4949 -0.7260 -0.6338 -1.4248 0.1900 5.0686
0.5448 -0.8571 1.0775 3.7725 0.6257 -1.1750 -1.4992 3.7002 2.1876 -3.4923 2.1796 2.4764 -1.6542 1.0716 6.8103 5.2463 -4.1608 -1.0042 -1.5482 -0.0002 5.7473 -0.9158 2.3207 6.3817 3.7349 -4.1233 -0.9072 5.8407 -2.8590 -0.5115 0.1199 -0.8237 -3.4571 -2.0656 0.5004 4.4153 -1.4490 2.8325 5.0603 1.4788 -0.3191 -3.0344 3.1581 -2.9164 -1.6227 5.2816 -1.7032 -1.3116 0.0663 1.4930 1.0759 -0.8150 0.2793 -3.3649 -1.3594 1.2665 1.3704 1.0724 0.4542 -0.7722 -4.0855 -1.3355 -3.7248 -4.4303 0.8821 -3.8454 -2.7613 -1.1955 -3.5703 -2.9877 1.1950 -3.6775 -4.9684 -0.2959 -3.8786 -1.3596 1.7717 3.9817 1.7136 -0.5691 -1.5607 3.8355 -1.6905 -1.2313 0.5559 0.2131 0.4809 -2.1736 0.1319 -3.5558 3.2018 -0.4562 -1.3131 -2.0580 2.3883 2.4533
-1.0283 -2.0300 0.1133 2.7015 -0.4756 0.5549 -2.3773 -1.0171 4.9103 0.0315 -0.6799 5.5851 -0.4721 4.0719 5.1219 2.9301 -3.5789 -3.3984 -0.2035 3.4574 3.7649 -1.6999 3.4536 5.7569 1.7159 -2.6765 -3.4947 3.4109 -3.6937 -1.9649 -0.1067 2.1211 -1.8696 -0.0378 1.9584 3.8880 -1.5672 1.9477 5.8555 1.0927 1.4832 -1.2075 2.0046 -1.3228 -2.8779 3.6552 -2.3264 -1.3555 -1.5739 -0.6916 2.0215 -0.0320 1.8938 -3.2977 -0.5667 -0.8451 3.0912 -0.0217 0.0494 0.3903 -1.6850 0.3036 -6.1105 -2.4139 -0.7879 -4.2863 -0.9515 1.1646 -5.3916 -1.6317 0.0738 -3.3616 -2.4340 -0.7166 -5.5799 -1.2736 1.3285 4.5011 0.7823 0.0578 -0.8053 2.4814 -1.4941 -1.5192 -0.8512 -0.9921 0.7420 -0.9012 1.0399 -3.9479 2.0922 -0.6375 -0.5007 -1.0690 -0.4386 4.6719
1.0756 1.1571 1.3312 1.6017 -3.4506 -0.7181 -1.7110 -0.5658 5.5147 -0.0048 1.2765 5.2600 -4.4815 1.6044 2.2544 5.9235 -1.2765 -1.9812 -3.7585 2.6412 3.0865 -3.4994 0.6671 1.5842 4.9482 -0.3590 -1.2721 5.2558 -2.4249 -2.7093 -0.9611 0.0391 -1.0966 -2.8509 1.9869 4.1053 -2.6113 0.0011 2.6124 -0.2853 -1.2894 -0.8571 3.5225 -0.5463 -1.7473 4.0709 -2.9655 -1.9373 1.3880 -0.2795 3.2206 -0.4600 0.6361 -2.3186 0.0760 -0.7713 3.6799 1.2945 -1.1323 1.0017 -3.3438 2.1380 -3.9884 -1.9786 1.3865 -5.6093 -2.5403 1.7013 -3.0088 -0.9943 0.8378 -4.6382 -3.0844 2.0017 -5.3295 -1.8724 1.0374 3.4396 1.1570 -1.1081 -0.4340 3.1058 -1.9323 -1.6180 1.2233 0.0170 1.7591 -1.3086 1.0077 -3.3419 1.9586 -2.2905 -0.9237 -0.8550 0.2549 4.6797
1.4293 1.7990 -1.0533 1.9407 -2.9732 -0.1229 0.5432 2.7765 4.2123 -1.4735 3.1372 2.7403 -3.4670 -0.7546 4.6810 5.6202 -0.5968 0.7155 -2.6779 -1.1080 3.4387 -2.5796 -0.0944 5.7142 5.6293 -0.2282 -0.7540 5.3112 -2.0649 0.9425 -0.2590 -0.6734 -3.1708 -2.0207 0.1247 2.8580 -1.8911 1.1252 5.1425 0.6039 -1.6912 -2.4496 4.3244 -0.6014 -1.4337 4.7256 -2.7477 -0.2801 -0.2402 1.4654 0.6327 -1.6558 -0.9951 -2.9396 0.4838 1.6528 1.9064 0.8663 -0.3614 -0.4196 -3.4864 1.4123 -5.0209 -4.9389 0.6412 -3.4911 -2.4882 0.6376 -4.5707 -3.9270 -0.2551 -2.8686 -4.7488 1.4526 -4.4833 -1.1193 0.7919 3.8784 1.5730 -1.0258 -1.4920 3.7981 -1.8743 -0.9740 0.7905 1.0138 -0.3600 -2.6959 -0.2107 -3.4095 2.4308 -2.0638 -0.7929 -0.4013 2.2895 3.2241
-0.2609 2.6401 0.0288 1.1883 -1.9943 0.4231 -0.7541 2.2720 5.5087 -2.9136 1.5258 4.4391 0.9291 -2.2430 5.2639 5.1882 0.8528 -0.7213 -0.5136 -2.1932 5.7243 1.0914 -1.5759 3.9144 4.9169 -0.1613 0.3704 3.9208 1.5783 -1.1254 -0.4489 -0.6618 -3.0146 -1.0405 -0.7723 5.7360 0.5936 -0.1478 3.9645 -0.6640 -0.9947 -1.5627 3.7926 -1.1004 -0.0163 2.8066 0.6077 -1.4671 -1.7249 1.8663 1.7615 -1.3239 -1.4780 -3.8291 -0.9054 2.1682 2.9491 -0.4792 0.3576 0.4360 -1.9190 0.7377 -6.6828 -3.4499 -0.9033 -6.8055 -1.3481 0.2209 -5.5864 -2.9357 -1.5868 -5.5887 -3.0075 0.1995 -7.3219 -0.8614 -0.1023 4.3853 0.2313 -0.1132 -0.7250 2.6141 -0.3492 -0.3925 -0.7327 1.6950 0.6517 -1.8982 -0.9816 -4.9844 1.3730 -0.9408 -0.1849 -1.4640 1.5782 4.4515
0.8487 1.1194 -0.2363 2.7363 -3.2176 -0.4013 -2.1344 3.3591 2.9514 -2.7138 1.2845 1.6368 -2.3132 0.7183 6.9974 5.0091 -0.1083 -3.6621 -3.3634 0.2547 6.0096 -0.9303 0.6906 6.3807 3.6776 0.4740 -3.2359 5.5397 -1.0696 -2.6172 -0.4452 -2.5828 -2.7466 -3.3079 1.0600 4.7286 -0.8915 1.5200 5.1144 -0.0244 -2.6967 -1.2994 2.6935 -0.6313 -2.9139 4.5175 -2.1346 -2.2709 0.2596 0.4254 2.0080 -1.7389 -1.9335 -2.8295 -0.2480 1.7993 2.1681 0.8549 -1.1304 0.3398 -0.8535 1.5352 -3.6290 -3.0281 1.5302 -3.0630 -0.7386 0.2087 -3.4773 -3.0471 0.0625 -2.8262 -2.0093 2.2454 -3.4228 -1.9193 1.0158 4.1202 1.0153 -1.6443 -0.9948 3.2472 -1.5321 -1.9198 0.6716 0.2184 0.5758 -1.8783 -0.5710 -3.0274 2.4024 -2.2400 -1.0696 -1.8883 1.9706 2.6122
0.9373 1.4018 -0.2184 1.4063 -3.3638 -0.3302 0.4190 -0.3627 5.6857 1.2284 1.8794 4.8598 -4.1112 1.3655 5.7814 4.6954 -0.4515 -2.2822 -3.0946 2.2987 6.4062 -3.7432 1.0347 4.3507 3.3834 0.1615 -2.7353 4.7664 -1.9339 -2.5853 -1.3524 -1.7584 -2.5576 -1.6905 1.7399 6.3022 -2.3527 0.4417 4.2846 -1.0353 -1.8550 -1.0834 2.2317 -0.8258 -2.7672 3.6174 -2.7014 -1.9556 0.7706 1.0949 2.1281 -2.0571 -0.5202 -2.8344 0.3099 0.1529 3.1583 0.4077 -0.7172 0.5265 -0.8354 0.3249 -6.1853 -1.6783 2.2146 -5.3097 -1.1575 -0.4025 -5.1068 -2.0760 1.5457 -4.0416 -1.0742 1.6697 -6.3183 -1.3401 1.4077 4.8635 0.3262 -1.2663 -0.8044 2.4339 -1.8840 -1.7967 0.7029 0.6157 0.7003 -1.7731 0.2381 -3.9572 1.4190 -2.2996 -0.9455 0.3162 0.7549 4.7677
0.7498 1.4306 0.9916 0.0957 -2.4248 -1.5460 1.3324 -0.2625 5.2512 1.1899 1.8447 3.8718 -2.0166 1.4397 8.1638 4.3373 -1.2389 -0.8775 -1.1876 2.5938 7.6422 -2.6496 0.6764 7.0202 3.9931 0.0657 -1.5667 3.6911 -2.4422 -1.5397 -1.2264 1.1715 -3.1519 -0.1344 2.1063 6.6720 -1.5894 0.1656 6.0693 -1.4322 0.0667 -2.1403 2.4942 0.2390 -1.7156 2.6706 -2.0618 -2.5957 -1.0882 0.6319 2.3071 -0.4347 0.6902 -4.2697 -0.3548 -0.1565 3.3165 -0.6209 -0.2309 0.1333 -2.9077 -0.6695 -6.6067 -0.9263 -1.5758 -7.1583 -2.3836 0.0445 -5.6008 -0.2076 -0.8638 -6.0680 -2.1928 -1.5093 -7.4236 -0.7501 1.3090 5.5347 -0.2262 -0.0592 -1.2422 1.8254 -0.9827 -2.1262 -0.2006 0.6615 1.0960 -0.9677 -0.0642 -5.2989 0.5621 -1.2897 -1.6284 0.5558 0.6947 4.4869
-0.6684 -1.0343 0.3670 3.4423 -0.9579 0.0731 -3.3109 2.2701 2.9518 -2.7650 -0.1894 3.1027 -1.2896 2.8975 7.2476 3.5382 -3.7736 -4.0975 -1.8320 1.4854 7.1877 -0.3152 3.1473 6.1165 2.3952 -2.7808 -4.1747 4.6248 -3.2901 -3.1583 0.9096 1.6826 -2.8165 -2.4839 1.2126 5.8492 -0.9690 2.8851 4.7770 2.0642 0.9672 -2.1495 1.8702 -2.4412 -2.7928 4.0593 -2.9220 -1.8014 0.0371 0.4262 2.1292 0.3525 0.8496 -3.8655 -1.0427 1.4311 2.0763 1.1180 0.4179 0.0231 -2.8099 -0.2843 -2.3971 -2.8648 -0.8439 -4.5718 -1.6196 0.3197 -2.5118 -1.5373 -0.2322 -4.8476 -3.4709 -0.9024 -3.4281 -1.5218 1.4741 4.7062 1.5814 -0.1344 -1.2271 2.9585 -1.9923 -1.9454 0.0919 -0.1505 0.7470 -0.9285 0.3308 -3.7891 2.7385 -1.0681 -0.9299 -2.3523 1.2002 3.1497
0.6617 1.3931 -0.1887 3.2360 -2.3727 0.1197 -2.6319 3.2318 2.8780 -2.8159 0.9793 1.7551 -2.3615 0.9965 7.1462 4.8004 -0.9972 -4.4779 -3.3242 0.2814 6.2217 -0.9903 1.1207 6.5159 3.3082 -0.7657 -4.3688 5.2238 -2.1370 -3.5750 -0.0217 -2.4529 -2.6292 -3.3927 0.9591 4.8694 -1.0767 1.8217 5.1765 0.3700 -2.5038 -1.1700 2.9134 -0.5157 -2.9274 4.7760 -1.9057 -2.1452 0.2427 0.7045 2.0949 -1.3921 -1.9979 -2.7531 -0.4897 1.9766 2.2210 0.9901 -0.8143 0.4554 -1.0197 1.5651 -3.5478 -3.1749 1.2382 -3.0021 -0.7087 0.2708 -3.3905 -2.9775 -0.2161 -2.7650 -2.2697 2.0967 -3.3520 -2.0140 1.0762 4.2468 1.2835 -1.3422 -0.8527 3.3603 -1.6004 -2.0722 0.6327 0.5042 0.6546 -1.7252 -0.6693 -2.9505 2.7240 -1.8111 -0.8477 -2.1367 1.8863 2.6606
1.1998 -0.1675 1.2697 3.9053 0.6353 -1.2331 -2.6683 3.2036 1.2827 -3.8607 1.0860 1.9578 -1.8397 1.5981 6.2905 5.3645 -4.2068 -1.1905 -1.1961 0.5508 5.4069 -1.7585 2.9633 5.6402 3.8986 -4.1206 -1.5614 6.0869 -2.9566 -1.6450 0.2575 -1.1473 -3.4254 -1.8588 0.5242 4.0469 -2.4271 2.9405 4.2819 1.5765 -0.4961 -3.0738 3.2705 -2.8764 -0.9646 5.4229 -1.6999 -1.1123 -0.2523 1.6128 0.5733 -0.7568 -0.1267 -3.6199 -1.5102 0.9270 0.9182 1.2161 0.5600 -0.9387 -3.9203 1.0997 -2.2974 -3.8763 -1.0973 -1.8277 -2.7044 1.0779 -2.8636 -2.5352 -1.2825 -2.4441 -4.5580 0.0037 -1.7681 -1.8060 1.8877 3.3856 1.8403 -0.5715 -1.5833 3.9921 -1.6858 -1.3694 0.7683 0.5366 0.3637 -1.9706 -0.1729 -2.9562 3.3395 -0.4517 -1.3514 -2.6396 1.8524 1.8084
-1.2420 2.7547 0.3759 0.9431 -1.6048 0.3659 -0.3648 2.0175 5.7492 -2.7562 1.3753 5.2649 0.9908 -2.4956 4.8218 4.4065 1.0055 -2.2039 -0.3647 -2.4857 5.4956 0.9682 -1.6723 3.5525 3.0255 1.4463 -2.6443 4.3655 -0.4208 -1.6997 -2.0964 0.1968 -2.3502 -0.8274 -1.0708 5.7677 0.5205 -0.2538 3.8351 -1.2536 -0.6536 -1.4278 2.0193 1.2705 -1.5248 3.3419 -0.5757 -0.5937 -2.1812 1.6862 2.3038 -1.3159 0.6383 -3.4899 -1.2341 2.1481 3.3366 -0.9201 0.4744 0.7011 -1.6847 -2.0392 -5.9659 0.1735 -0.8976 -6.5092 -1.9403 -1.2611 -4.9047 0.0324 0.0362 -5.3615 -0.6158 -1.8802 -6.8111 -0.8443 -0.2428 4.4966 -0.3321 0.1988 -0.5856 2.0406 -0.0858 -1.0067 -1.3932 1.7274 1.0287 -1.0347 -0.1761 -4.5714 0.9337 -0.5842 -0.3218 -1.3597 1.4242 4.8768
2.4558 2.0322 0.9391 0.2464 -2.1098 -0.1289 0.5378 -1.0645 5.5700 0.2347 1.4154 5.9092 -4.0584 0.7048 3.7120 4.7969 -1.8545 -1.4121 -3.0219 1.5365 2.9867 -3.5329 -0.6868 3.9914 4.2972 -0.6713 -2.2132 3.8979 -3.0634 -1.5845 -0.6449 1.2813 -2.2046 -1.7260 1.5902 3.7676 -2.2423 -0.6256 4.7784 -0.7465 0.5617 -0.8795 2.8840 -0.2813 -1.8257 2.4367 -2.7116 -1.7955 1.3010 1.7813 3.0151 -0.4512 0.3148 -3.2688 1.4604 0.5475 3.8070 0.7129 0.5053 1.0687 -2.9635 1.2636 -5.7620 -2.3538 -0.8496 -6.2230 -2.1109 1.3622 -4.7321 -1.3811 -0.8984 -5.0995 -3.1289 0.1410 -6.5341 -1.1950 0.1960 4.0504 0.6324 0.2560 -0.3464 2.1294 -1.3952 -1.2804 1.5825 1.4490 1.5761 -1.3069 0.2150 -4.3491 0.9560 -1.2043 -0.5646 0.3021 0.2623 5.0324
-0.4646 3.1766 0.7719 0.1149 -1.6194 0.0032 -0.0427 1.6164 6.0350 -2.4394 1.3320 5.2977 0.9954 -2.7540 4.3740 4.4240 0.5834 -1.4001 -0.3810 -2.7376 5.0048 1.0858 -1.7452 3.2495 3.3470 1.6446 -1.3295 4.1566 -0.4951 -0.3722 -1.4741 0.6709 -2.8206 -0.7442 -1.3494 5.4870 0.7460 -0.3567 3.7479 -1.6927 0.1603 -1.4155 1.9738 1.0282 -1.5081 2.7732 -1.0856 -0.5518 -1.7475 2.3166 2.6039 -0.7322 -0.3263 -3.5658 -0.6936 2.2515 3.6336 -1.0741 0.9328 0.8009 -0.2601 -1.8384 -6.8317 -2.2443 -0.7880 -6.9324 -0.0330 -1.4418 -5.5715 -2.1416 -0.2888 -5.5353 -1.3815 -1.5247 -7.5582 -0.6381 -0.3280 4.3676 -0.5736 0.6269 -0.5130 1.7492 -0.0590 -0.5708 -1.0112 2.2153 1.3028 -1.0175 -0.6314 -4.8803 0.4392 -0.4810 -0.3328 -1.0179 1.2949 5.0100
-0.5774 2.9896 0.3460 1.0029 -1.5720 0.5099 0.3496 2.0866 5.8013 -2.0878 1.7125 5.2681 -0.9381 -2.9627 4.5966 4.5049 0.3793 -2.5610 -1.0654 -2.1502 3.3258 0.0920 -2.3605 5.5300 3.1598 1.0023 -2.8698 4.3259 -1.0067 -1.9772 -1.9804 0.4818 -2.1594 -1.3952 -0.7100 3.6499 -0.2119 -0.9058 5.8242 -1.1811 -0.4624 -1.2899 2.2806 1.0160 -1.6361 3.4043 -0.9850 -0.7737 -1.5265 2.1820 2.3893 -1.2335 0.8196 -3.3563 -0.4256 2.2898 3.3672 -0.6166 0.7034 0.7673 -2.1533 -1.8105 -5.7360 -0.2505 -0.8837 -6.4925 -2.2085 -1.0007 -4.6695 -0.1649 0.0671 -5.3528 -1.1694 -1.7751 -6.6920 -0.3272 -0.1066 4.5405 -0.1224 0.2904 -0.5203 2.1532 -0.3177 -1.0767 -0.8459 2.0305 1.0619 -1.1603 -0.0192 -4.4530 1.0560 -0.6234 -0.2717 -0.6872 1.6012 4.9102
1.2818 3.3241 0.7805 -0.3110 -1.1835 -0.3328 0.0410 1.5258 5.8393 -2.0489 2.4896 4.8046 -0.9564 -2.7103 3.8399 4.6792 -1.3454 -1.1458 -2.2468 -2.0105 4.2101 -0.1295 -1.8551 2.9043 4.2861 0.0110 -0.6019 3.6810 -2.3933 -0.7007 -0.2403 1.5461 -3.1875 -1.9722 -0.6519 4.8185 0.1534 -0.5013 3.5192 -0.8188 1.2541 -1.8214 2.8789 0.3693 -1.0301 2.2661 -2.0088 -1.0878 -0.5529 3.0673 2.3026 0.0292 0.3028 -3.8855 0.1603 2.5171 3.4713 -0.2200 1.5705 0.4986 -1.4391 -2.5140 -5.6518 -3.1333 -1.0863 -5.2768 -0.5372 -1.7102 -5.0705 -2.2522 -0.0921 -4.6097 -2.7770 -2.2310 -5.7683 -1.1345 0.2089 3.8909 0.2669 1.1101 -0.7793 1.9308 -0.6653 -0.6561 0.2926 2.6860 1.1244 -0.9562 -0.4399 -4.5084 0.5723 -0.3588 -0.5690 -0.7933 1.7750 4.6791
1.0318 1.5780 -0.2251 2.4807 -2.9198 0.2328 -0.0905 0.0291 5.6015 -0.2245 2.3430 4.6020 -4.8782 1.4349 3.6228 3.9791 -2.0593 -4.1298 -3.9482 1.1726 2.4572 -4.4780 0.6236 4.8375 3.7744 -0.6119 -3.7364 4.8176 -2.7843 -3.0955 -0.2359 -1.9920 -2.6155 -2.5109 1.4408 2.8453 -3.0337 0.8784 5.2165 -0.1004 -2.0771 -1.1109 3.0795 -0.4869 -2.3942 4.4979 -2.3830 -1.6667 0.8681 1.2989 2.1339 -1.4784 -1.3321 -2.9604 0.3376 0.3091 3.0857 0.8266 -0.5776 0.5856 -0.5018 2.1868 -3.3403 -2.7476 2.1215 -3.3694 -0.3924 0.8552 -3.2292 -2.7855 0.6431 -3.2214 -1.6905 2.8700 -3.4034 -2.1136 0.6024 4.0444 1.0577 -1.2101 -0.6829 3.2401 -1.6755 -1.5754 0.8993 0.7924 0.7125 -1.5886 0.0369 -3.1313 2.3284 -2.0170 -0.5874 -0.4198 0.9099 4.4974
1.8220 -2.3453 2.1613 1.3342 0.3683 -0.7325 -0.4017 -0.4530 6.1083 0.5822 1.7633 5.4107 -3.7507 3.0399 3.7535 3.5448 -1.9402 -4.2796 -2.8712 2.4365 2.6797 -3.9445 2.0757 4.9036 2.6104 -2.8628 -3.5218 3.3402 -0.5036 -3.8401 -1.3429 -1.1415 -1.8205 -1.5386 2.0093 3.2559 -2.6139 1.6354 5.4754 -0.4324 -2.2873 -1.4407 2.7917 -2.6993 -2.0235 3.5157 -0.3713 -2.3389 -0.1152 -1.3920 3.2041 -1.2310 -0.9085 -3.2477 0.5508 -0.1821 3.7278 0.0833 -1.5414 0.8420 -0.9297 1.6642 -5.8001 -0.7732 2.7388 -3.8332 -1.1105 0.4707 -5.2166 -0.9598 1.4909 -3.0475 -0.7384 2.8431 -5.1239 -1.7312 1.0328 4.4005 0.6388 -1.9204 -0.4342 2.6608 -1.3057 -1.6351 0.7240 -1.8131 2.0334 -1.1081 0.3653 -3.7693 1.5530 -0.8237 -0.9476 -0.1587 0.5570 5.0964
-1.1894 -0.2452 1.0130 2.4384 1.1992 -0.2648 0.6679 3.0439 5.1187 -1.7813 3.2636 4.5505 -0.3633 -1.0131 7.4688 2.8911 -3.1989 -2.6874 -1.5883 -0.1248 7.5091 0.0787 -1.2603 6.0422 1.6202 -2.5074 -3.1353 3.9032 -2.1879 -2.1909 -0.8915 1.3842 -3.3726 -1.3320 1.1820 6.7888 0.3396 0.0469 5.3259 0.2373 1.7752 -2.4488 1.0622 -1.6301 -2.0324 3.3142 -1.2981 -1.1147 -1.3313 1.9274 2.0117 -0.3474 0.6747 -4.5130 -0.2164 1.9306 2.9778 -0.2706 1.5893 -0.0850 -0.8732 -2.1475 -6.7451 -2.5794 -2.2022 -5.2856 -0.3326 -1.0571 -6.1827 -2.1001 -0.9980 -4.5574 -2.0232 -2.7592 -6.3148 -0.8862 0.9386 5.3589 0.2493 0.8803 -1.2297 2.0668 -0.7002 -1.5473 -0.9239 0.9508 0.9489 -0.9709 -0.4426 -5.0339 1.6835 0.4895 -0.9296 -0.5512 2.4965 4.5567
2.0989 2.0166 1.0093 0.3342 -1.7143 0.3108 0.8706 0.4675 6.1580 -0.4090 2.5868 5.6638 -2.7880 -2.0398 4.3255 3.9217 -0.8705 -3.1911 -3.3351 -0.7580 4.9169 -1.7185 -1.7472 3.2942 2.6762 -0.0257 -3.3603 3.9949 -1.5885 -1.8599 -1.6847 0.6586 -2.1911 -2.2240 0.0817 5.5102 -0.6041 -0.9210 3.8981 -1.4914 0.3244 -0.7308 2.0909 0.4219 -2.0382 2.6249 -1.8967 -1.2943 0.6088 2.4885 2.8227 -1.4331 -0.5302 -2.9812 1.1512 1.5976 3.8673 -0.0153 1.0427 1.0521 -1.0149 0.8044 -6.3697 -1.2296 -1.4242 -6.5656 -1.1223 0.7705 -5.0341 -1.3738 -1.6198 -5.0994 -1.0667 -0.2981 -7.1852 -1.1479 0.3696 4.4800 -0.0594 0.5776 -0.3125 1.8128 -0.7040 -1.1635 1.0048 1.8363 1.5329 -1.3292 -0.4986 -4.3584 0.6984 -0.7332 -0.3365 0.1588 1.3250 5.2299

>  <OB_ATOM_TYPES> (1uvsB1)
O.2 O.2 O.2 O.2 C.3 C.3 C.3 C.3 C.3 C.3 C.3 C.3 C.3 C.3 C.3 C.3 C.3 N.pl3 N.3 N.am C.ar C.ar C.ar C.ar N.ar C.3 C.3 N.am C.2 C.ar C.2 S.O2

>  <ENSEMBLE_RMSD> (1uvsB1)
0.000 1.142 1.820 1.835 1.893 1.920 1.992 2.046 2.132 2.184 2.280 2.374 2.390 2.426 2.446 2.464 2.480 2.493 2.496 2.567 2.650 2.678 2.693 2.731 2.745 2.764 2.776 2.805 2.809 2.811 2.831 2.835 2.844 2.859 2.876 2.923 2.937 3.046 3.110 3.123 3.164 3.213 3.274 3.275 3.310 3.341 3.486 3.532

$$$$
