
 OpenBabel03071213D

 12 12  0  0  0  0  0  0  0  0999 V2000
   38.9280   30.2240   57.2830 O   0  0  0  0  0
   37.0010   31.8330   58.7540 O   0  0  0  0  0
   32.6470   31.1640   57.3420 O   0  0  0  0  0
   35.7420   34.5650   57.4820 O   0  0  0  0  0
   33.3120   33.7940   58.8710 O   0  0  0  0  0
   37.4660   30.1960   57.0250 C   0  0  0  0  0
   34.8300   31.2960   56.7440 O   0  0  0  0  0
   37.0700   31.6570   57.3350 C   0  0  0  0  0
   35.8270   32.3570   56.7650 C   0  0  0  0  0
   33.7170   31.7430   57.4010 C   0  0  0  0  0
   35.2800   33.4330   57.6410 C   0  0  0  0  0
   34.0770   33.0500   58.0420 C   0  0  0  0  0
  1  6  1  0  0  0
  2  8  1  0  0  0
  3 10  2  0  0  0
  4 11  2  0  0  0
  5 12  2  0  0  0
  6  8  1  0  0  0
  7  9  1  0  0  0
  7 10  1  0  0  0
  8  9  1  0  0  0
  9 11  1  0  0  0
 10 12  1  0  0  0
 11 12  1  0  0  0
M  END
>  <MOLID> (1xidA1)
1xidA1

>  <SMILES_CANONICAL> (1xidA1)
OC[C@@H]([C@H]1OC(=O)C(=O)C1=O)O	

>  <FINGERPRINT> (1xidA1)
0000000000000101000000000100000000000001000000000000000000000000000000000000000000000101000000000000000000000001000000100000000000000000000011000000000001000000000000000010000000000000000000000000000000000000000000000000000000000000000000000000000000000000000001000000000000000001000000000000000100000000000000000000000000000000000000000000000000000000010000000000000011010010000000000001010000000000100000000010100000000010100000000000000000000000000000000000100000000000000000000010100000001000100000000000100000000000000000100000000000000000100000000000000000000000000000000000000101000000001000000000000000000000000000000000000000000001000000000000000000000000001000000000000000000000000010100000000000000101000000000000000000000000000010000000000000000000000101000000000000000000000001000000000000000000000000000000000000000000000000000000000010000000000000000000000000000000000000000010000000000000000000000000001000000000000000000000000000000000000010000000000000000000000000000000000000000010000000000000000000000000

>  <MACCS166> (1xidA1)
000000000000000000000000000000000000000000000000000001001000000000000001000000000110000010000001000000010000100000000001001000100011000111110010010001011110101000011000

>  <OB_MW> (1xidA1)
174.016

>  <OB_logP> (1xidA1)
-2.5968

>  <OB_PSA> (1xidA1)
100.9

>  <OB_MR> (1xidA1)
32.8506

>  <OB_ATOMIC_CHARGES> (1xidA1)
-0.2174289747 -0.2159116679 -0.2411423523 -0.283767734 -0.2763779003 0.2190192372 -0.4359891685 0.2321596428 0.2661040357 0.3842587241 0.2606013336 0.3084748244

>  <MCT_HBD> (1xidA1)
2

>  <MCT_HBA> (1xidA1)
6

>  <ENSEMBLE_TOTAL> (1xidA1)
2

>  <ENSEMBLE_COORDS> (1xidA1)
3.4366 -1.8853 -0.2741 1.5096 -0.2763 1.1969 -2.8444 -0.9453 -0.2151 0.2506 2.4557 -0.0751 -2.1794 1.6847 1.3139 1.9746 -1.9133 -0.5321 -0.6614 -0.8133 -0.8131 1.5786 -0.4523 -0.2221 0.3356 0.2477 -0.7921 -1.7744 -0.3663 -0.1561 -0.2114 1.3237 0.0839 -1.4144 0.9407 0.4849
3.2471 0.1432 -0.6021 0.9355 -2.2761 0.7364 -3.1323 -0.5206 0.2206 0.7912 2.0293 -0.0429 -1.9690 2.0945 0.6122 2.6844 -1.1340 -0.3531 -0.9627 -0.9856 -0.4788 1.3523 -0.9762 0.3456 0.3404 -0.3278 -0.5888 -1.9779 -0.2274 0.0137 0.0626 1.0653 -0.1071 -1.3716 1.1153 0.2443

>  <OB_ATOM_TYPES> (1xidA1)
O.3 O.3 O.2 O.2 O.2 C.3 O.3 C.3 C.3 C.2 C.2 C.2

>  <ENSEMBLE_RMSD> (1xidA1)
0.000 1.048

$$$$
