
 OpenBabel03071213D

 20 22  0  0  0  0  0  0  0  0999 V2000
   11.2730    9.6590    5.2290 C   0  0  0  0  0
    7.8680    8.9110    5.4940 O   0  0  0  0  0
    8.4870   11.2270    4.7360 O   0  0  0  0  0
   10.3790    6.9420    2.8730 C   0  0  0  0  0
    9.3930    7.6540    3.8060 C   0  0  0  0  0
   11.8380    9.0210    2.9300 C   0  0  0  0  0
   11.6980    7.5310    3.1900 N   0  0  0  0  0
    6.2060   10.0250    0.8770 C   0  0  0  0  0
    3.8100    9.8370    5.4060 C   0  0  0  0  0
    4.8490   10.0170    1.2990 C   0  0  0  0  0
    5.1500    9.8420    5.0600 C   0  0  0  0  0
    7.2230    9.9710    1.8620 C   0  0  0  0  0
    3.1660    9.9490    3.1070 C   0  0  0  0  0
    2.8850    9.8900    4.4240 N   0  0  0  0  0
   10.7840    9.7940    3.7670 C   0  0  0  0  0
    9.4280    9.1390    3.5960 N   0  0  0  0  0
    4.5100    9.9570    2.6830 C   0  0  0  0  0
    5.5440    9.9020    3.6810 C   0  0  0  0  0
    6.9220    9.9070    3.2590 C   0  0  0  0  0
    8.2560    9.8400    4.4310 S   0  0  0  0  0
  1 15  1  0  0  0
  2 20  2  0  0  0
  3 20  2  0  0  0
  4  5  1  0  0  0
  4  7  1  0  0  0
  5 16  1  0  0  0
  6  7  1  0  0  0
  6 15  1  0  0  0
  8 10  2  0  0  0
  8 12  1  0  0  0
  9 11  1  0  0  0
  9 14  2  0  0  0
 10 17  1  0  0  0
 11 18  2  0  0  0
 12 19  2  0  0  0
 13 14  1  0  0  0
 13 17  2  0  0  0
 15 16  1  0  0  0
 16 20  1  0  0  0
 17 18  1  0  0  0
 18 19  1  0  0  0
 19 20  1  0  0  0
M  END
>  <MOLID> (1ydrA1)
1ydrA1

>  <SMILES_CANONICAL> (1ydrA1)
C[C@H]1CNCCN1S(=O)(=O)c1cccc2c1ccnc2	

>  <FINGERPRINT> (1ydrA1)
0000000000000000000000001001001000000000100000000000000000000000000000010001000001000000000000000000010110110000000001100000000000000000000011000000000000000000000000000000000000000000000000000000000000000010000000000000000000000000000000000000000000000000000000000000000000000000000000000000000000000000000010000100000000000000001000000010000000000100011000000000000010000000000000000000000000000000000010000000001000000000010000000010000000000001100000000110000000000000010000000000000000000100100000000000010000000000000000000010000000000000000000000000000000000000000000000000000001100000000000000000000000000000000000000110101000000001110000000000000000000000000000000011100000000000100000000000100000100000100000000000000000100001101010100100000000000000001110000000001000000000000000000000000000000000000000000000000100000100000000000000000000000000000000000000000000000000000000000000110000001000000000000000010000000000001000000000011000000000000000000000000000000100000000000000001000000000000000010000001001100000

>  <MACCS166> (1ydrA1)
000000000000000000000000010000011000000000001000011000100111100110100000101101101100010100100100011101011101001100111111110110001110000111011100111111101001011110111000

>  <OB_MW> (1ydrA1)
291.104

>  <OB_logP> (1ydrA1)
2.5647

>  <OB_PSA> (1ydrA1)
70.68

>  <OB_MR> (1ydrA1)
85.4787

>  <OB_ATOMIC_CHARGES> (1ydrA1)
0.0206747232 -0.1527723074 -0.1527723074 0.1078494657 0.1145522984 0.1063650765 -0.2150473058 0.0014192178 0.0989240758 0.0016263468 0.0220089918 0.019909399 0.0988747204 -0.2423178629 0.0970006887 -0.1540136869 0.0204740021 0.0216596952 0.1222548238 0.0633299452

>  <MCT_HBD> (1ydrA1)
1

>  <MCT_HBA> (1ydrA1)
5

>  <ENSEMBLE_TOTAL> (1ydrA1)
50

>  <ENSEMBLE_COORDS> (1ydrA1)
3.7896 0.2083 1.6435 0.3845 -0.5397 1.9085 1.0035 1.7763 1.1505 2.8956 -2.5088 -0.7125 1.9095 -1.7967 0.2205 4.3545 -0.4298 -0.6555 4.2146 -1.9198 -0.3955 -1.2774 0.5742 -2.7085 -3.6734 0.3863 1.8205 -2.6345 0.5662 -2.2865 -2.3335 0.3913 1.4745 -0.2605 0.5202 -1.7235 -4.3175 0.4982 -0.4785 -4.5984 0.4393 0.8385 3.3005 0.3432 0.1815 1.9446 -0.3118 0.0105 -2.9735 0.5062 -0.9025 -1.9394 0.4512 0.0955 -0.5615 0.4562 -0.3265 0.7725 0.3892 0.8455
3.7713 0.0455 1.6777 0.6078 0.0047 1.9463 1.2835 2.0926 0.7473 2.7645 -2.5265 0.1316 1.7793 -1.5736 -0.5094 4.3970 -0.8785 -0.5595 4.1347 -2.2881 -0.2984 -1.4184 0.9597 -2.5654 -3.7599 -0.0331 1.6822 -2.7048 0.7359 -2.2461 -2.3126 0.1941 1.4359 -0.3707 0.9201 -1.5621 -4.3053 0.2305 -0.4851 -4.7091 -0.0285 0.8008 3.5057 0.0947 0.1894 2.0826 -0.1788 -0.1183 -3.0372 0.4534 -0.8618 -1.9734 0.4244 0.1560 -0.5907 0.6489 -0.2556 0.8560 0.7025 0.6944
3.6686 -0.4786 2.0460 0.4999 0.0019 2.1004 1.2142 2.0131 0.7965 2.9937 -2.3328 -0.9293 1.8806 -1.7309 -0.0894 4.5233 -0.6402 -0.2697 3.9703 -1.3651 -1.4035 -1.2960 0.3005 -2.5513 -3.8700 0.5540 1.6672 -2.6084 0.2615 -2.2621 -2.3991 0.5893 1.4586 -0.2916 0.4225 -1.5103 -4.3128 0.3346 -0.5278 -4.7840 0.4299 0.7579 3.4831 0.0099 0.6270 2.1117 -0.2900 0.1543 -3.0165 0.3512 -0.8726 -1.9961 0.4757 0.1818 -0.5847 0.4793 -0.1919 0.8138 0.6141 0.8184
3.7922 0.0434 1.8965 0.5721 0.5377 2.1658 1.4647 2.2227 0.5464 2.3712 -2.4629 -0.7962 1.6385 -1.6841 0.2846 4.2793 -1.1753 -0.1843 3.5899 -1.8298 -1.2853 -1.2397 0.8217 -2.5567 -3.7184 -0.0772 1.6301 -2.5224 0.5289 -2.2826 -2.2784 0.2352 1.4382 -0.2433 0.9206 -1.5067 -4.1721 0.0250 -0.5703 -4.6227 -0.1846 0.7088 3.4719 -0.0381 0.4211 2.0211 -0.2596 0.2199 -2.9048 0.3165 -0.8995 -1.8920 0.4244 0.1654 -0.5098 0.7307 -0.1939 0.9026 0.9048 0.7989
3.9097 0.9225 0.6973 0.1781 -0.9780 2.0488 1.0037 1.3407 1.6152 3.3960 -2.5608 -0.2011 2.6596 -1.8337 0.9089 3.7958 -0.5210 -1.3463 4.4289 -1.7023 -0.7682 -1.0781 0.6632 -2.4441 -4.0509 0.4979 1.5086 -2.4040 0.8103 -2.2752 -2.5769 0.3242 1.4320 -0.1914 0.4024 -1.3244 -4.2637 0.8358 -0.7060 -4.8603 0.7411 0.5266 2.9998 0.2764 -0.3244 2.0286 -0.6267 0.3346 -2.9496 0.6937 -0.9351 -2.0514 0.4195 0.1989 -0.6202 0.2687 -0.0507 0.6462 0.0263 1.1047
3.7350 -0.6290 1.9548 0.4348 -0.8786 1.9102 0.8550 1.5161 1.3331 3.3275 -1.6776 -1.4981 2.2336 -1.6729 -0.4467 4.5163 0.0181 -0.3392 4.6073 -1.3286 -0.8935 -1.4735 -0.3673 -2.4333 -3.8447 1.3052 1.5750 -2.7534 -0.0400 -2.1826 -2.4110 0.9487 1.4110 -0.4486 -0.2690 -1.4097 -4.3630 0.7782 -0.5504 -4.7755 1.2336 0.6768 3.4159 0.1544 0.7003 2.1344 -0.3019 0.1082 -3.1051 0.4238 -0.8531 -2.0674 0.5147 0.1865 -0.6973 0.1350 -0.1462 0.6798 0.1374 0.8970
3.7455 -0.4092 1.9407 0.4182 -1.0590 1.8447 0.8093 1.3738 1.4303 3.4036 -1.7581 -1.4247 2.3029 -1.7398 -0.3812 4.4811 0.0883 -0.4066 4.6561 -1.2926 -0.8439 -1.5032 -0.3713 -2.4418 -3.8213 1.3460 1.5782 -2.7673 0.0187 -2.1978 -2.4045 0.9258 1.4174 -0.4792 -0.3365 -1.4117 -4.3467 0.8917 -0.5613 -4.7466 1.3431 0.6718 3.3742 0.2397 0.6241 2.1176 -0.3433 0.0852 -3.1059 0.4806 -0.8633 -2.0717 0.5037 0.1854 -0.7166 0.0730 -0.1479 0.6545 0.0255 0.9024
3.9855 1.3339 0.5570 0.7445 -0.5411 1.6592 1.2346 1.8224 1.0099 2.3621 -2.5486 -0.0567 1.9688 -1.4489 -1.0321 3.9375 -1.1286 1.0069 3.7542 -2.4182 0.3510 -1.4292 1.0553 -2.5538 -3.6567 -0.0765 1.7146 -2.7122 0.8716 -2.1976 -2.2080 0.0715 1.4242 -0.3486 0.9010 -1.5983 -4.2768 0.3406 -0.4077 -4.6402 0.0301 0.8775 3.6193 -0.0235 0.0241 2.2017 -0.1140 -0.4061 -3.0124 0.5179 -0.8237 -1.9136 0.3624 0.1463 -0.5375 0.5365 -0.3111 0.9269 0.4565 0.6164
4.0862 0.6765 0.3171 0.3294 0.0991 2.3324 1.4255 1.9568 1.0762 2.8402 -2.7382 0.2895 2.3270 -1.6476 1.2130 3.5441 -1.1443 -1.3118 3.9832 -2.2576 -0.4771 -1.1179 1.4228 -2.3407 -3.8530 -0.4584 1.3264 -2.4291 1.1604 -2.2034 -2.3908 -0.2007 1.2800 -0.1794 1.1978 -1.2563 -4.1944 0.3318 -0.7514 -4.7188 -0.2070 0.3967 2.9941 0.0118 -0.4923 1.9108 -0.4874 0.3901 -2.8966 0.6115 -0.9445 -1.9347 0.3440 0.1397 -0.5267 0.6854 -0.0531 0.8011 0.6432 1.0693
3.5825 1.1703 1.6684 0.8105 -1.3899 1.1684 0.7621 1.0631 1.6172 2.9557 -2.0537 -1.0361 2.4642 -0.6718 -1.4359 4.0094 -1.1732 0.9015 4.2111 -1.9776 -0.2988 -1.5564 -0.0454 -2.5764 -3.6812 0.9799 1.7726 -2.8148 0.2484 -2.2055 -2.2640 0.6500 1.4723 -0.4738 -0.1037 -1.6113 -4.3188 0.8101 -0.3780 -4.6587 1.0643 0.9272 3.5841 0.2225 0.5020 2.2854 0.1732 -0.2222 -3.0835 0.5057 -0.8034 -1.9867 0.4310 0.1758 -0.6352 0.1248 -0.2909 0.8080 -0.0279 0.6531
3.3934 1.2098 0.8056 0.0988 -1.9070 1.5206 0.6734 0.4680 2.0585 3.8800 -2.2196 -0.2991 2.9705 -1.7863 0.8395 3.7001 -0.0835 -1.3228 4.6352 -1.0810 -0.8104 -1.2015 0.1093 -2.4680 -3.8450 1.1896 1.5695 -2.4269 0.6264 -2.2774 -2.4666 0.6398 1.4666 -0.3388 -0.2455 -1.3576 -4.1113 1.3114 -0.6618 -4.6303 1.5191 0.5922 2.7101 0.3943 -0.2714 2.0286 -0.7820 0.3112 -2.8901 0.8230 -0.9153 -2.0115 0.4701 0.2147 -0.6824 -0.0677 -0.0644 0.5143 -0.5883 1.0697
4.1160 1.1437 -0.0826 0.8087 -0.1000 1.8074 1.4898 2.0212 0.6692 2.6361 -2.6813 -0.1953 1.6316 -1.6552 -0.6954 3.8352 -1.0519 1.1093 3.1752 -2.3537 1.1172 -1.4669 1.4155 -2.4575 -3.5409 -0.4953 1.6082 -2.7285 1.0948 -2.1229 -2.1141 -0.1782 1.3408 -0.3650 1.2240 -1.5332 -4.2166 0.2048 -0.4194 -4.5418 -0.3244 0.8043 3.5364 -0.2415 -0.1320 2.0839 -0.2585 -0.4280 -2.9764 0.5382 -0.8062 -1.8545 0.3364 0.1271 -0.5050 0.7054 -0.2912 0.9969 0.6561 0.5803
3.3016 1.1500 -0.2081 0.0317 -1.3989 1.7515 0.9829 0.9041 1.7274 4.2816 -1.5611 0.9103 2.8068 -1.8902 0.9974 3.8115 -0.9925 -1.3954 4.7765 -1.5531 -0.4584 -1.1223 0.8979 -2.4170 -4.0568 0.4963 1.5453 -2.4351 1.1011 -2.2106 -2.5953 0.2513 1.4283 -0.2446 0.4529 -1.3508 -4.2765 1.0577 -0.6220 -4.8642 0.8707 0.6040 2.7292 -0.1287 -0.7754 2.0012 -0.8976 0.2548 -2.9733 0.8755 -0.8825 -2.0785 0.4377 0.2017 -0.6633 0.2143 -0.0904 0.5868 -0.2873 0.9898
2.7405 1.7910 0.7638 0.5608 -2.1351 0.5789 0.7848 0.0357 1.7884 3.5723 -2.2494 -0.3076 2.6683 -1.4220 -1.2134 4.0322 -0.3551 1.0598 4.6301 -1.4391 0.2849 -1.6837 0.0403 -2.5982 -3.4490 1.2507 1.8636 -2.8506 0.5534 -2.1704 -2.1249 0.6860 1.4974 -0.6139 -0.2896 -1.6736 -4.1721 1.2924 -0.2670 -4.4223 1.5421 1.0603 3.1978 0.5047 0.1349 2.0866 -0.2978 -0.4280 -3.0245 0.7917 -0.7497 -1.9328 0.4711 0.1852 -0.6883 -0.0843 -0.3395 0.6888 -0.6867 0.5303
3.8589 -0.1826 1.7941 0.4579 -1.9161 1.7401 0.5679 0.5538 2.1191 3.2804 -1.2783 -1.6294 2.4675 -1.7004 -0.4200 3.9409 0.7301 -0.5438 4.4231 -0.4748 -1.2115 -1.6098 -1.0968 -2.1160 -3.4439 2.0733 1.2101 -2.7026 -0.3158 -2.0836 -2.1962 1.2678 1.2680 -0.6606 -1.1160 -1.0198 -4.0118 1.2976 -0.8230 -4.3080 2.1054 0.2457 3.0649 0.4310 0.6624 1.9728 -0.4744 0.2451 -2.9255 0.5159 -0.9160 -1.9544 0.4999 0.1922 -0.7702 -0.3492 0.0891 0.5486 -0.5704 1.1973
1.5247 -1.4250 2.0401 0.9516 1.7759 1.5523 1.7813 2.3702 -0.7201 3.1292 -1.7476 -1.2448 1.8395 -0.9917 -0.9922 3.8100 -1.4712 1.0056 3.5433 -2.4539 -0.0391 -1.6601 0.9510 -2.6559 -2.9637 -0.3611 1.9327 -2.7761 0.4248 -2.1240 -1.6701 0.1851 1.4438 -0.5022 1.2514 -1.8375 -3.9079 -0.3255 -0.1087 -4.0256 -0.6003 1.2305 2.5946 -0.6200 1.3381 2.0649 -0.0191 0.0968 -2.8075 0.1678 -0.6963 -1.6189 0.4537 0.1282 -0.4335 1.0266 -0.5054 1.1265 1.4089 0.1559
3.9471 0.6513 -0.9717 0.9123 0.4908 1.9124 1.8627 2.1097 0.2595 1.8260 -2.3217 1.2223 1.2135 -1.7760 -0.0603 3.8142 -1.0550 0.8760 3.2821 -2.3859 1.1532 -1.6198 2.0912 -2.1433 -3.1349 -1.1999 1.2256 -2.7875 1.4679 -1.9119 -1.8043 -0.5523 1.0754 -0.4531 1.8507 -1.3155 -4.0131 -0.1163 -0.5362 -4.1817 -1.0135 0.4868 3.2642 -0.5792 -0.4481 1.7909 -0.4337 -0.3600 -2.8733 0.5418 -0.8009 -1.6960 0.3119 0.0526 -0.4507 1.0160 -0.2501 1.1013 0.9021 0.5340
1.5822 -2.2432 -0.5326 0.5459 0.1491 2.2506 1.1890 2.1632 0.9305 4.0239 -0.4750 -1.2869 3.0189 0.5038 -0.7166 3.8046 -1.9797 0.5725 4.7268 -1.2109 -0.2511 -1.1623 0.0789 -2.4014 -3.8500 0.7409 1.6963 -2.4770 -0.0005 -2.1334 -2.3737 0.7912 1.5213 -0.1908 0.3598 -1.3612 -4.2245 0.2182 -0.4590 -4.7349 0.4739 0.7887 2.3517 -1.5410 0.5622 2.2636 -0.0751 0.4132 -2.9207 0.2398 -0.7735 -1.9318 0.5327 0.2789 -0.5099 0.5310 -0.0595 0.8688 0.7429 0.9608
1.4604 -1.3952 2.1393 1.0040 1.9337 1.3082 1.8864 2.1471 -1.0145 3.1655 -1.8511 -1.0738 1.8294 -1.1492 -0.9186 3.7689 -1.3668 1.1646 3.5827 -2.4392 0.1931 -1.8563 1.1520 -2.6537 -2.7724 -0.4665 1.9314 -2.9326 0.6081 -2.0597 -1.5257 0.1175 1.3718 -0.6116 1.3523 -1.9347 -3.8736 -0.3373 -0.0259 -3.8732 -0.7118 1.2944 2.4963 -0.5734 1.4081 1.9597 -0.1117 0.1181 -2.8358 0.2245 -0.6637 -1.5811 0.4542 0.0723 -0.4418 1.0398 -0.6308 1.1507 1.3727 -0.0258
1.5697 -2.2889 -0.4596 0.5239 0.1121 2.2261 1.1605 2.1297 0.9112 4.4216 -0.0093 -0.7008 2.9657 0.4076 -0.7877 3.8485 -1.9584 0.5247 4.5282 -1.4626 -0.6681 -1.1987 0.0807 -2.4238 -3.8398 0.7396 1.7070 -2.5142 0.0472 -2.1495 -2.3659 0.7721 1.5171 -0.2122 0.3152 -1.3854 -4.2449 0.2746 -0.4562 -4.7381 0.5049 0.8036 2.3819 -1.5602 0.5862 2.2668 -0.0944 0.4142 -2.9437 0.2715 -0.7817 -1.9413 0.5214 0.2672 -0.5225 0.4913 -0.0826 0.8543 0.7060 0.9379
1.0062 -2.1506 0.0249 0.7279 1.0926 2.0780 1.5532 2.4457 0.1585 4.2619 -0.6816 -0.7681 2.9330 0.0280 -0.9474 3.3530 -2.0934 0.9033 4.0448 -2.0711 -0.3807 -1.2773 0.5970 -2.5442 -3.4867 0.0957 1.8565 -2.5296 0.2929 -2.1641 -2.0766 0.4425 1.5437 -0.2342 0.8712 -1.5716 -4.0621 -0.0677 -0.3115 -4.4332 -0.1484 1.0078 2.0097 -1.3857 0.8620 2.1990 -0.0163 0.3335 -2.8268 0.2281 -0.7443 -1.7657 0.5057 0.2381 -0.4212 0.8314 -0.2322 1.0248 1.1839 0.6579
2.0508 -0.4115 -2.0845 0.6816 0.6501 2.1424 2.0678 1.5852 0.2847 3.3559 -1.5170 1.8001 1.9182 -1.8317 1.4169 3.8690 -0.8744 -0.4267 4.2539 -1.7498 0.6751 -1.3913 2.1213 -2.1013 -3.3884 -0.9666 1.2106 -2.6312 1.6340 -1.9178 -1.9803 -0.5099 1.0798 -0.2960 1.7677 -1.2168 -4.0843 0.2228 -0.5678 -4.3891 -0.6365 0.4574 2.4459 -1.1748 -0.8508 1.5128 -0.9513 0.2858 -2.8641 0.7246 -0.8100 -1.7460 0.3440 0.0692 -0.4235 0.9126 -0.1785 1.0383 0.6613 0.7323
2.2010 1.2985 0.7422 0.1234 -2.7994 0.3381 0.3484 -0.9508 1.9991 4.2459 -0.9981 0.9275 3.0663 -1.8682 0.5574 3.6854 0.3190 -1.0229 4.7550 -0.2448 -0.2084 -1.5697 -0.0682 -2.5945 -3.1587 1.6249 1.7748 -2.5566 0.7671 -2.2270 -2.0407 0.6939 1.4766 -0.6968 -0.6898 -1.6156 -3.7095 1.8700 -0.3925 -3.9534 2.1873 0.9205 2.3022 0.3148 -0.4011 1.9509 -1.0522 0.0325 -2.7363 1.0478 -0.8142 -1.8444 0.4193 0.1764 -0.7894 -0.4790 -0.2823 0.3771 -1.3921 0.6136
0.9906 -1.6749 1.8990 0.7628 1.2683 2.2178 1.7335 2.4580 0.2633 3.1614 -0.5313 -1.5614 3.4736 0.2184 -0.2780 1.8087 -2.0952 -0.4159 2.9594 -1.9505 -1.2993 -0.8253 0.3113 -2.4885 -3.4272 0.1837 1.7159 -2.0806 -0.0603 -2.1861 -2.0102 0.5753 1.4989 0.1028 0.7443 -1.4623 -3.7597 -0.3225 -0.4497 -4.2599 -0.2548 0.8261 2.0936 -1.4196 0.9081 2.3804 0.0203 0.7045 -2.5095 0.0121 -0.8024 -1.5696 0.4756 0.2334 -0.1982 0.8065 -0.1449 1.1732 1.2352 0.8215
2.4068 -2.4263 -0.6005 0.4666 -1.0914 2.0146 0.7151 1.3658 1.6789 4.1185 0.8203 -0.6926 2.6126 0.6476 -0.7365 4.3970 -1.2679 0.3894 4.7773 -0.4774 -0.7762 -1.3909 -0.7260 -2.2280 -3.7968 1.5198 1.4672 -2.6494 -0.2755 -2.0804 -2.3846 1.0615 1.4044 -0.4028 -0.5885 -1.1725 -4.2600 0.8211 -0.6214 -4.6905 1.4237 0.5344 2.8967 -1.4943 0.4828 2.2033 -0.1953 0.4031 -3.0178 0.3585 -0.8279 -2.0172 0.4934 0.2432 -0.6597 0.0046 0.0126 0.6758 0.0264 1.1054
0.7262 -2.0070 0.3944 0.8689 1.5873 1.8379 1.7810 2.4733 -0.3034 4.0048 -1.1054 -0.7857 2.7517 -0.2840 -1.0298 3.0894 -2.0204 1.2057 3.6912 -2.3443 -0.0838 -1.4351 0.9134 -2.5998 -3.1022 -0.2687 1.9059 -2.6029 0.4338 -2.1391 -1.7874 0.2966 1.5084 -0.3261 1.1940 -1.7080 -3.8821 -0.2894 -0.2036 -4.0988 -0.5465 1.1267 1.8175 -1.1995 1.0634 2.1299 0.0153 0.2783 -2.7459 0.2082 -0.7135 -1.6281 0.5201 0.1930 -0.3782 1.0311 -0.3665 1.1262 1.3922 0.4194
1.9554 -2.5713 0.9088 0.4799 -0.5355 2.3760 0.8690 1.7509 1.4838 3.4022 0.7694 -1.2463 3.3078 0.9305 0.2587 3.0041 -1.5558 -1.0984 3.9368 -0.5451 -1.5794 -0.9534 -0.7093 -2.1834 -3.7766 1.3004 1.3486 -2.2628 -0.4136 -2.0996 -2.3246 0.9843 1.3686 -0.0389 -0.4454 -1.0866 -4.0567 0.5192 -0.7439 -4.6061 1.0947 0.3748 2.8509 -1.4720 0.4064 2.4204 -0.1173 0.8148 -2.7648 0.1830 -0.8765 -1.8417 0.4342 0.2414 -0.4301 0.0860 0.0890 0.8293 0.3127 1.2431
2.2418 1.4368 1.7659 0.9530 -2.4333 -0.0957 0.5380 -0.8931 1.8263 4.0560 -0.8753 -1.1146 2.6083 -0.5227 -1.4325 3.7996 -0.4820 1.2471 4.2441 -1.4233 0.2225 -2.0987 -0.6767 -2.4630 -2.7956 1.9099 1.6969 -3.0911 0.1131 -2.0176 -1.6565 1.0390 1.3099 -0.9396 -0.9770 -1.6417 -3.9251 1.5096 -0.2071 -3.8746 2.1314 1.0154 2.8773 0.5860 0.7032 1.8922 -0.0089 -0.2283 -2.9707 0.7045 -0.6982 -1.7721 0.4361 0.1150 -0.7561 -0.4804 -0.3970 0.6700 -1.0936 0.3938
3.2317 0.3249 2.4136 1.2687 -2.1557 0.6235 0.3893 -0.5163 2.2911 2.8064 -0.5823 -1.7148 1.9354 0.5188 -1.1303 4.0518 -0.7407 0.3035 4.1462 -0.5539 -1.1404 -1.8945 -1.3853 -2.0701 -2.9675 2.1699 1.2003 -2.9037 -0.5050 -1.9541 -1.7934 1.2597 1.1526 -0.8105 -1.4289 -1.1065 -3.8851 1.3067 -0.6632 -3.9581 2.2107 0.3668 3.2234 0.3726 0.9099 1.8472 0.3478 0.3466 -2.8954 0.4176 -0.8343 -1.7865 0.3825 0.1346 -0.7204 -0.6015 -0.0410 0.7149 -0.8416 0.9121
1.4553 -1.0026 2.5497 0.9553 1.7453 1.9070 1.9768 2.5387 -0.2146 2.9802 -1.5806 -1.2137 3.0784 -0.1281 -0.7811 1.1312 -1.9998 0.2671 1.6245 -2.0984 -1.1017 -1.0261 0.7635 -2.6287 -2.8994 -0.3778 1.8066 -2.1728 0.1893 -2.2263 -1.6066 0.2715 1.4700 -0.0047 1.1630 -1.6791 -3.5119 -0.5798 -0.3484 -3.8015 -0.7943 0.9758 2.0128 -1.1631 1.1651 2.3828 0.1132 0.5136 -2.3910 -0.0012 -0.8048 -1.3696 0.4425 0.1588 -0.1256 1.0248 -0.3391 1.3120 1.4736 0.5237
4.1451 0.0384 0.0839 0.8432 1.5249 1.8455 1.8981 2.0947 -0.3463 2.7759 -2.1389 1.6942 1.5623 -1.2561 1.5150 3.0589 -2.0829 -0.7068 3.0971 -2.8980 0.4972 -2.0882 2.6825 -1.5493 -2.6807 -1.7790 0.5074 -3.1178 1.8298 -1.4724 -1.4734 -0.9129 0.4673 -0.8077 2.3812 -0.9387 -3.9301 -0.3144 -0.6573 -3.8457 -1.5144 0.0019 2.8971 -0.5890 -0.5075 1.7201 -0.3455 0.3564 -2.9321 0.5730 -0.7708 -1.6245 0.2600 -0.1684 -0.5355 1.2282 -0.2883 1.0378 1.2184 0.4369
2.0841 1.1271 2.1098 1.0497 -2.4797 -0.2123 0.4596 -1.1608 1.8291 3.6782 -1.1718 -1.1057 2.5000 -0.2457 -1.3803 3.8425 -0.3936 1.1384 4.5813 -0.6244 -0.0999 -2.2485 -0.9021 -2.3596 -2.5534 2.0784 1.5791 -3.1481 0.0126 -1.9566 -1.5056 1.0860 1.2291 -1.0736 -1.2164 -1.5658 -3.7774 1.6371 -0.2567 -3.6267 2.3500 0.9065 2.7365 0.5988 0.8642 1.7731 0.0246 -0.1064 -2.9169 0.7107 -0.7053 -1.7146 0.4077 0.0881 -0.7912 -0.6195 -0.3864 0.6507 -1.2191 0.3908
0.9846 -1.3106 -1.6666 0.9408 1.3784 1.9878 2.2130 1.4889 -0.1625 3.7715 -1.0186 1.5241 2.3077 -1.2286 1.8784 3.3239 -1.3439 -0.7840 4.1386 -1.7884 0.3411 -1.4552 2.1440 -2.1380 -3.1284 -1.0381 1.2626 -2.6305 1.5175 -1.9532 -1.7859 -0.4128 1.1396 -0.3254 1.9184 -1.2543 -3.9210 -0.0280 -0.5857 -4.1376 -0.8839 0.4654 1.8610 -1.5772 -0.4749 1.4587 -0.8063 0.7306 -2.7687 0.6157 -0.8244 -1.6299 0.4034 0.0837 -0.3649 1.0741 -0.2004 1.1474 0.8959 0.6306
0.8275 -1.5223 -1.4723 0.9446 1.4745 1.9125 2.2114 1.4612 -0.2411 3.8853 -0.8829 1.4070 2.4628 -1.0752 1.9107 3.2382 -1.4204 -0.8129 4.1613 -1.7500 0.2674 -1.4701 2.0771 -2.1964 -3.1234 -0.9931 1.3148 -2.6516 1.4759 -1.9717 -1.7738 -0.3931 1.1498 -0.3286 1.8604 -1.3257 -3.9389 -0.0118 -0.5390 -4.1478 -0.8375 0.5374 1.8167 -1.6480 -0.3485 1.5041 -0.7731 0.8111 -2.7811 0.6057 -0.8175 -1.6281 0.3982 0.0735 -0.3603 1.0474 -0.2471 1.1517 0.9070 0.5879
4.0083 -0.0086 -0.5202 0.8981 1.4687 1.8407 1.9100 2.0433 -0.3632 2.8740 -1.9240 1.8632 1.5402 -1.3372 1.4558 3.0173 -2.2819 -0.5270 3.5335 -2.6521 0.7873 -2.0935 2.7613 -1.4047 -2.7417 -1.7849 0.4316 -3.1354 1.9143 -1.3689 -1.5172 -0.9399 0.4261 -0.8103 2.4051 -0.8309 -3.9716 -0.2474 -0.6535 -3.9014 -1.4820 -0.0601 2.7243 -0.7961 -0.6775 1.7362 -0.3911 0.3427 -2.9526 0.6208 -0.7398 -1.6403 0.2565 -0.1723 -0.5357 1.2117 -0.2547 1.0578 1.1635 0.4256
3.3364 -0.0470 -1.1661 0.6121 1.3545 2.2952 1.9713 2.2396 0.3837 2.5855 -2.3477 1.5568 2.5936 -0.8354 1.6791 2.1548 -2.2207 -0.7720 3.0695 -2.7453 0.2387 -1.6877 2.5475 -1.7486 -2.6648 -1.6757 0.6399 -2.7200 1.6860 -1.7759 -1.4799 -0.7860 0.7470 -0.5449 2.3409 -0.8787 -3.6772 -0.3691 -0.8886 -3.7033 -1.5031 -0.1161 2.0470 -0.7049 -0.7263 1.6844 -0.2925 0.6490 -2.6711 0.5174 -0.9163 -1.5085 0.3018 -0.0424 -0.4193 1.2726 -0.0625 1.0221 1.2671 0.9041
2.0042 0.8907 1.6669 0.3731 -3.0167 -0.2097 0.1481 -1.5927 1.8258 4.2134 -0.9173 0.6229 3.0573 -1.7307 0.0824 3.2520 0.9977 -0.4993 4.4727 0.2747 -0.1680 -2.1341 -0.5453 -2.5331 -2.3119 2.0774 1.6543 -2.8708 0.5039 -2.1280 -1.4678 0.9017 1.3161 -1.1382 -1.1563 -1.6696 -3.3487 2.0807 -0.3424 -3.1962 2.6468 0.8990 1.9871 0.5317 0.1984 1.8215 -0.9230 0.0049 -2.6516 1.0265 -0.7926 -1.6528 0.3955 0.0867 -0.8964 -0.7548 -0.4009 0.3392 -1.6905 0.3863
1.9480 0.7485 2.4081 1.2143 -2.3799 -0.6213 0.4575 -1.5625 1.6214 3.9235 0.0391 -1.1182 2.4147 0.1533 -1.2945 3.7531 -0.5419 1.2111 4.3144 -0.9083 -0.0837 -2.4731 -1.0732 -2.2533 -2.2851 2.1672 1.4856 -3.2902 -0.0898 -1.8320 -1.3131 1.1075 1.1089 -1.2311 -1.3828 -1.5568 -3.6877 1.6708 -0.2023 -3.4032 2.4465 0.8929 2.6379 0.4703 1.1034 1.7028 0.0933 0.0184 -2.9089 0.6807 -0.6637 -1.6482 0.3785 0.0312 -0.8041 -0.7062 -0.4674 0.6788 -1.3111 0.2120
2.5346 0.4934 -1.6039 0.6022 -2.7357 -0.5102 -0.0072 -1.7870 1.7075 3.5750 0.2404 1.8659 2.1288 0.3032 1.4085 4.2618 -0.6663 -0.2185 4.4758 0.4209 0.7332 -1.3909 0.3699 -2.6441 -3.2848 1.0695 1.8699 -2.4115 1.1044 -2.1707 -2.1116 0.2552 1.4595 -0.5740 -0.4457 -1.7663 -3.6842 1.7943 -0.2209 -4.0212 1.8153 1.1091 2.8328 -0.7138 -0.7405 1.9162 -0.7659 0.4159 -2.6797 1.0772 -0.7457 -1.8383 0.2576 0.1441 -0.7418 -0.5232 -0.4265 0.4179 -1.5637 0.3337
3.2185 -2.0537 -0.7202 0.6973 -2.3457 1.3699 0.3514 -0.1028 2.3946 3.1178 1.5946 -0.4824 1.8871 0.7136 -0.5888 4.3900 -0.1724 0.4557 4.3319 0.8010 -0.6295 -1.8113 -1.4474 -1.9737 -3.0742 2.2298 1.0856 -2.7843 -0.5202 -1.9903 -1.9652 1.2480 1.2013 -0.8186 -1.4886 -0.9154 -3.7893 1.3921 -0.8752 -3.9262 2.3320 0.1154 3.1966 -1.1133 0.4635 1.9554 -0.3194 0.4602 -2.8469 0.4376 -0.9027 -1.8630 0.3669 0.1921 -0.8087 -0.6438 0.1415 0.5417 -0.9083 1.1983
3.5440 -0.2128 1.8657 0.6749 -2.7296 1.2274 0.2599 -0.6164 2.5180 2.9356 -0.3121 -1.7200 2.3514 -1.2847 -0.7129 3.1678 1.3612 -0.0526 3.8770 0.5908 -1.0688 -2.5434 -1.8178 -1.4022 -1.8589 2.7581 0.3589 -3.1600 -0.6411 -1.6114 -1.1112 1.5107 0.6624 -1.4276 -1.9407 -0.4804 -3.2622 1.7300 -1.0697 -2.8703 2.8853 -0.4405 2.5163 0.4825 1.0019 1.6471 -0.5064 0.3296 -2.6853 0.5310 -0.8996 -1.5481 0.4104 0.0266 -0.9296 -0.8992 0.2209 0.4228 -1.2993 1.2466
3.5608 -1.8294 -0.7161 0.7272 -2.7155 0.8559 0.3204 -0.7274 2.3235 2.8164 1.6142 -0.5920 1.7462 1.0331 0.3076 4.1583 0.1127 0.7396 4.1627 1.1617 -0.2703 -1.9737 -1.3704 -2.1463 -2.7380 2.2296 1.1625 -2.8461 -0.3506 -2.0695 -1.7381 1.1309 1.1821 -0.9731 -1.5922 -1.1191 -3.6224 1.5716 -0.7985 -3.6271 2.4586 0.2489 3.1532 -0.9939 0.4759 1.7965 -0.4464 0.2211 -2.7831 0.5323 -0.9197 -1.7791 0.2944 0.1311 -0.8524 -0.8261 -0.0112 0.4913 -1.2873 0.9943
1.4951 1.6847 -0.4131 0.7387 -2.4971 -1.5809 0.4635 -2.0228 0.8410 4.0401 -1.1346 1.1223 3.3375 -1.6039 -0.1438 2.3222 0.4732 1.6451 3.1254 -0.6412 2.1428 -1.8669 0.5966 -2.7509 -2.3956 1.0063 2.1506 -2.7206 1.2719 -1.9632 -1.4231 0.1946 1.3774 -0.8309 -0.2520 -2.1928 -3.4006 1.8152 0.3074 -3.3338 1.7656 1.6777 2.3718 0.6017 0.1435 2.1964 -0.7124 -0.5063 -2.5911 1.1435 -0.5227 -1.5430 0.2735 0.0394 -0.6517 -0.4492 -0.8661 0.6665 -1.5132 -0.5075
2.4529 0.7965 -1.2769 0.9071 -2.5208 -1.3932 -0.1089 -2.4898 0.8799 2.9778 0.1033 2.2531 1.6470 -0.0327 1.5381 4.1673 -0.2227 0.2299 3.9734 0.6815 1.3591 -1.4778 0.7056 -2.7211 -2.8936 0.7602 2.0200 -2.3815 1.4230 -2.0312 -1.8602 -0.0758 1.3560 -0.6409 -0.2881 -2.0734 -3.4060 1.8660 0.1294 -3.6137 1.6883 1.4744 2.8865 -0.4602 -0.5564 1.8296 -0.9229 0.3720 -2.5254 1.1740 -0.6093 -1.6919 0.1488 0.0418 -0.7058 -0.5799 -0.7549 0.4641 -1.7543 -0.2374
4.2075 -0.2378 0.1917 1.3028 2.1029 1.5501 1.8282 2.0112 -0.8934 1.4644 -2.3335 1.4569 1.6074 -0.8491 1.7433 2.7334 -2.1405 -0.5397 2.6317 -2.8317 0.7407 -2.4783 2.8293 -0.4837 -2.0065 -2.0964 -0.4872 -3.3416 1.8147 -0.6621 -0.9680 -1.0478 -0.3320 -1.0764 2.5909 -0.1950 -3.6623 -0.5947 -0.7308 -3.2750 -1.9103 -0.6695 2.8690 -0.6362 -0.3849 1.7723 -0.1388 0.4612 -2.8409 0.4561 -0.5836 -1.4085 0.2203 -0.3390 -0.5235 1.3587 -0.1084 1.1642 1.4328 0.2654
2.3497 0.7248 2.2951 0.5909 -2.9667 0.7820 0.2358 -1.0938 2.3817 3.5305 -0.6747 -1.4211 2.1161 -1.0477 -1.0392 3.6115 0.9663 0.2489 3.7123 0.7494 -1.1846 -2.8336 -1.7044 -1.2732 -1.4615 2.7721 0.3293 -3.3499 -0.4710 -1.4100 -0.8139 1.4537 0.5533 -1.6164 -1.9374 -0.5180 -3.1314 1.8955 -0.8961 -2.5454 3.0050 -0.3403 2.2400 0.5911 0.7923 1.9114 -0.8199 0.4198 -2.6582 0.6446 -0.7918 -1.4214 0.4061 -0.0281 -0.9093 -0.9578 0.0885 0.4430 -1.5353 1.0115
3.4654 -0.7343 -1.3255 0.9760 -2.6612 -0.7692 0.0340 -2.1043 1.4686 2.5752 1.5049 1.4212 1.5871 0.8717 0.4604 4.1517 -0.2285 1.0312 3.9419 1.2154 1.0031 -1.8734 -0.2674 -2.7360 -2.6790 1.4477 1.8358 -2.7515 0.6074 -2.2150 -1.6949 0.4380 1.3685 -0.8888 -0.9416 -1.9091 -3.5471 1.7464 -0.2183 -3.5607 2.0665 1.1166 3.1840 -0.9886 0.1385 1.8017 -0.5884 0.4701 -2.7127 0.8639 -0.7878 -1.7224 0.1710 0.0518 -0.7911 -0.7667 -0.5729 0.5045 -1.6518 0.1682
3.5360 -0.5106 -1.1397 1.2643 1.9468 1.7554 1.8528 1.9993 -0.6738 2.4547 -2.0969 1.9415 2.5725 -0.5993 1.7304 2.1570 -2.4553 -0.3848 2.9637 -2.8123 0.7777 -2.4115 2.9134 -0.3607 -2.1413 -2.0231 -0.5312 -3.3022 1.9461 -0.6376 -1.0875 -1.0330 -0.1926 -1.0312 2.6039 -0.0379 -3.7001 -0.4385 -0.8745 -3.3686 -1.7700 -0.8585 2.1691 -0.9624 -0.6754 1.7616 -0.2353 0.5487 -2.8561 0.5667 -0.5973 -1.4580 0.2566 -0.2464 -0.5285 1.3482 0.0275 1.1535 1.3556 0.4291
3.1301 -1.9464 -0.8029 0.9721 -2.8307 0.8457 0.1402 -1.1583 2.4794 1.7241 1.8211 0.5793 2.1599 0.8063 1.6230 2.5202 0.4530 -1.1843 2.5935 1.7821 -0.5892 -1.1643 -1.0927 -2.3694 -2.7612 1.8750 1.2521 -2.1153 -0.1458 -2.2973 -1.6776 0.8584 1.2787 -0.3420 -1.4316 -1.2230 -3.2491 1.4950 -0.9103 -3.5096 2.1909 0.2433 2.9942 -0.5816 -0.1882 2.1516 -0.5569 1.0308 -2.3112 0.5443 -1.0370 -1.4751 0.1988 0.1255 -0.4577 -0.8418 -0.0119 0.6772 -1.4389 1.1556
3.8112 -0.9600 1.4186 0.8074 -2.3750 1.5675 0.3869 -0.1331 2.6110 2.5692 0.1191 -1.8282 1.8887 -0.8948 -0.9295 3.6521 1.1215 0.0285 3.8635 0.4936 -1.2717 -2.9969 -1.9884 -0.2530 -1.5839 2.7349 -0.6923 -3.5329 -0.9125 -0.8557 -0.9004 1.6087 -0.0070 -1.7244 -1.9167 0.4433 -3.3052 1.4552 -1.3737 -2.7002 2.6872 -1.3474 2.9385 0.2070 1.0113 1.6786 -0.2709 0.3969 -2.8159 0.3487 -0.7955 -1.5332 0.4249 -0.0787 -0.9919 -0.7854 0.5337 0.4889 -0.9641 1.4219

>  <OB_ATOM_TYPES> (1ydrA1)
C.3 O.2 O.2 C.3 C.3 C.3 N.3 C.ar C.ar C.ar C.ar C.ar C.ar N.ar C.3 N.3 C.ar C.ar C.ar S.O2

>  <ENSEMBLE_RMSD> (1ydrA1)
0.000 0.431 0.445 0.567 0.582 0.671 0.678 0.754 0.777 0.834 0.940 0.951 0.984 1.135 1.229 1.351 1.368 1.435 1.438 1.461 1.507 1.540 1.578 1.592 1.594 1.600 1.600 1.605 1.621 1.719 1.720 1.728 1.769 1.784 1.794 1.810 1.912 1.951 1.992 2.011 2.100 2.135 2.147 2.186 2.198 2.245 2.255 2.305 2.316 2.337

$$$$
