
 OpenBabel03071213D

 18 19  0  0  0  0  0  0  0  0999 V2000
   12.3100    7.9960    3.6460 C   0  0  0  0  0
    8.1500   11.4220    4.9350 O   0  0  0  0  0
    9.5850   10.4810    3.1000 O   0  0  0  0  0
    9.9790    7.9390    3.1780 C   0  0  0  0  0
    9.0040    7.7420    4.3380 C   0  0  0  0  0
   11.1750    7.0990    3.3810 N   0  0  0  0  0
    8.4810    9.0070    4.8510 N   0  0  0  0  0
    6.0160   10.0210    0.7520 C   0  0  0  0  0
    4.1840    9.8510    5.3990 C   0  0  0  0  0
    4.7310    9.8660    1.2740 C   0  0  0  0  0
    7.1340   10.1760    1.5900 C   0  0  0  0  0
    5.4830   10.0090    4.9180 C   0  0  0  0  0
    3.2910    9.7100    3.2190 C   0  0  0  0  0
    3.1280    9.7070    4.5750 N   0  0  0  0  0
    4.5640    9.8650    2.6710 C   0  0  0  0  0
    5.6870   10.0190    3.5340 C   0  0  0  0  0
    6.9860   10.1780    2.9890 C   0  0  0  0  0
    8.4470   10.3740    3.9930 S   0  0  0  0  0
  1  6  1  0  0  0
  2 18  2  0  0  0
  3 18  2  0  0  0
  4  5  1  0  0  0
  4  6  1  0  0  0
  5  7  1  0  0  0
  7 18  1  0  0  0
  8 10  2  0  0  0
  8 11  1  0  0  0
  9 12  1  0  0  0
  9 14  2  0  0  0
 10 15  1  0  0  0
 11 17  2  0  0  0
 12 16  2  0  0  0
 13 14  1  0  0  0
 13 15  2  0  0  0
 15 16  1  0  0  0
 16 17  1  0  0  0
 17 18  1  0  0  0
M  END
>  <MOLID> (1ydsA1)
1ydsA1

>  <SMILES_CANONICAL> (1ydsA1)
CNCCNS(=O)(=O)c1cccc2c1ccnc2	

>  <FINGERPRINT> (1ydsA1)
0000000000000000000000001001001000000000100000000000000000000000000000010000000001000000000000000000000110110000000001100000000000000000000011000000000000000000000000000000000000000000000000000000000000000010000000000000000000000000000000000000000000000000000000000000000000000000000000000000000000000000000010000100000000000000001000000010000000000100011000000000000010000000000000000000000000000000000010000000000000000000010000000000000000000001100000000110000000000000010000000000000000000100100000000000010000000000000000000010000000000000000000000000000000000000000000000000000001100000000000000000000000000000000000000110100000000001110000000000000000000000000000000010100000000000100000000000100000100000100000000000000000000000101010000100000000000000001010000000001000000000000000000000000000000000000000000000000100000100000000000000000000000000000000000000000000000000000000000000110000001000000000000000010000000000001000000000011000000000000000000000000000000100000000000000001000000000000000010000001001100000

>  <MACCS166> (1ydsA1)
000000000000000000000000010000011000000000001000011001100111100110100000100101101100010100001100011101011100001100111111100110000110000111011100111110101011011110111000

>  <OB_MW> (1ydsA1)
265.088

>  <OB_logP> (1ydsA1)
2.5951

>  <OB_PSA> (1ydsA1)
79.47

>  <OB_MR> (1ydsA1)
70.0544

>  <OB_ATOMIC_CHARGES> (1ydsA1)
0.1075075851 -0.1515943693 -0.1515943693 0.1095203451 0.1342016203 -0.2149490836 -0.0762516207 0.0014198325 0.0989240783 0.0016263517 0.0199569823 0.0220096043 0.0988747228 -0.2423178629 0.0204746121 0.0217066679 0.1236081474 0.076876756

>  <MCT_HBD> (1ydsA1)
2

>  <MCT_HBA> (1ydsA1)
5

>  <ENSEMBLE_TOTAL> (1ydsA1)
50

>  <ENSEMBLE_COORDS> (1ydsA1)
5.1803 -1.5297 0.1825 1.0203 1.8963 1.4715 2.4553 0.9553 -0.3635 2.8493 -1.5867 -0.2855 1.8743 -1.7837 0.8745 4.0453 -2.4267 -0.0825 1.3513 -0.5187 1.3875 -1.1137 0.4953 -2.7115 -2.9457 0.3253 1.9355 -2.3987 0.3403 -2.1895 0.0043 0.6503 -1.8735 -1.6467 0.4833 1.4545 -3.8387 0.1843 -0.2445 -4.0017 0.1813 1.1115 -2.5657 0.3393 -0.7925 -1.4427 0.4933 0.0705 -0.1437 0.6523 -0.4745 1.3173 0.8483 0.5295
4.0488 -3.0907 -0.6477 0.9634 2.4777 1.4242 2.5304 1.4706 -0.2563 2.3164 -2.0274 0.5126 2.7432 -0.8667 1.3797 3.0952 -1.9980 -0.7132 1.5699 -0.0109 1.6319 -0.8560 0.5671 -2.6501 -3.0062 -0.0561 1.7642 -2.0762 0.1547 -2.2631 0.1693 0.9242 -1.6853 -1.6300 0.4023 1.4438 -3.5736 -0.3064 -0.3989 -3.9320 -0.3920 0.9233 -2.3684 0.0809 -0.8435 -1.3332 0.4517 0.1341 -0.0186 0.8660 -0.3489 1.3575 1.3531 0.5931
5.0861 -2.6332 0.4442 1.3187 1.5596 1.3130 2.1859 1.9179 -1.0106 3.2733 -1.6279 1.5187 1.8667 -1.2856 1.0871 3.7063 -2.8405 0.8459 1.9437 -0.4851 -0.1505 -1.6110 1.1573 -2.7310 -2.6957 -0.3480 1.8581 -2.7418 0.7431 -2.1331 -0.3582 1.2544 -2.0032 -1.3954 0.1048 1.2990 -3.7908 -0.0412 -0.0827 -3.8307 -0.4147 1.2375 -2.6931 0.3814 -0.7279 -1.4198 0.4689 0.0058 -0.2294 0.9452 -0.6939 1.3851 1.1438 -0.0765
5.1103 -0.5726 0.5552 1.5879 1.0471 0.9520 2.2677 0.2810 -1.3419 3.4782 -2.2425 0.6992 2.1667 -1.8473 1.3354 4.5550 -1.5933 1.4259 1.2372 -1.4226 0.2717 -1.6148 1.3195 -2.6877 -2.8897 -0.0387 1.8977 -2.7905 1.2241 -2.0419 -0.3608 0.9756 -2.0417 -1.5416 0.0234 1.2752 -3.9347 0.6534 0.0288 -4.0225 0.2418 1.3352 -2.7919 0.7661 -0.6647 -1.5203 0.4236 -0.0076 -0.2782 0.5332 -0.7680 1.3422 0.2283 -0.2227
4.0881 -3.8776 0.6750 0.8128 2.4535 1.5352 2.1666 2.2996 -0.5640 2.6627 -2.0308 0.6122 2.5880 -0.6583 -0.0097 3.5334 -2.8607 -0.1996 2.0119 0.2591 0.9910 -1.1214 0.6652 -2.6706 -2.8326 -0.1882 1.8945 -2.2629 0.1413 -2.1913 -0.0695 1.1349 -1.7864 -1.5341 0.3964 1.4708 -3.5557 -0.4615 -0.2193 -3.7945 -0.5919 1.1259 -2.4350 0.0468 -0.7530 -1.3629 0.5113 0.1429 -0.1494 1.0787 -0.4392 1.2546 1.6822 0.3855
4.7673 -3.6879 1.5798 1.1928 1.8180 1.2095 2.1079 1.7343 -1.1286 3.3425 -2.1850 0.5036 3.0741 -0.7027 0.5710 4.7247 -2.4173 0.8802 1.6871 -0.4707 0.1298 -1.7979 1.2568 -2.6904 -2.7893 -0.3290 1.8914 -2.9157 0.8260 -2.0799 -0.5288 1.3353 -1.9895 -1.4986 0.1272 1.3129 -3.9213 -0.0070 -0.0268 -3.9336 -0.4005 1.2883 -2.8376 0.4297 -0.6861 -1.5501 0.5049 0.0241 -0.3718 0.9852 -0.6942 1.2483 1.1827 -0.0951
2.3974 -2.2671 -1.5378 1.1748 2.5868 1.2715 2.7027 1.2522 -0.2007 2.0474 -2.0007 0.7567 2.6165 -0.9331 1.6600 3.0500 -2.3230 -0.2429 1.6070 0.1264 1.8380 -0.7220 0.7040 -2.6490 -2.8383 -0.2788 1.7149 -1.9294 0.2351 -2.2884 0.2960 1.0223 -1.6640 -1.4771 0.2417 1.4248 -3.4014 -0.4041 -0.4597 -3.7527 -0.5941 0.8536 -2.2109 0.0524 -0.8767 -1.1815 0.3852 0.1218 0.1223 0.8619 -0.3336 1.4993 1.3329 0.6115
5.6330 -3.1095 0.5106 1.0997 0.2321 1.7724 1.2623 2.3906 0.5231 4.1336 -1.3986 -0.0112 2.6969 -1.1059 -0.3680 4.2232 -2.7682 0.4607 2.5102 0.3572 -0.3419 -1.2780 0.0893 -2.5602 -3.4034 0.7835 1.8545 -2.5516 0.0604 -2.1298 -0.1750 0.3653 -1.6565 -1.9649 0.8343 1.4845 -4.0684 0.3052 -0.2417 -4.4038 0.5379 1.0690 -2.8169 0.3116 -0.7250 -1.6974 0.5859 0.1912 -0.3347 0.5879 -0.3338 1.1352 0.9410 0.5020
4.3886 -3.4114 -1.3188 0.8827 0.8313 2.3029 1.2028 2.7039 0.6781 3.4319 -1.4578 -0.4690 2.8564 -0.8097 0.7655 3.7891 -2.8242 -0.1351 2.6469 0.6216 0.4794 -0.6206 -0.2985 -2.2827 -3.5665 0.8684 1.5179 -1.9443 -0.3999 -2.0706 0.2713 0.2421 -1.2733 -2.0927 1.0124 1.3917 -3.7943 -0.0214 -0.5362 -4.3826 0.3862 0.6349 -2.4802 0.0442 -0.7970 -1.5731 0.5862 0.2280 -0.1425 0.6520 -0.0543 1.1269 1.2745 0.9386
3.3195 -3.3850 2.0618 1.1767 2.5389 1.0373 2.2579 1.9739 -1.1493 3.4321 -1.7918 0.3603 2.3487 -0.9431 -0.2583 2.8672 -3.0810 0.7166 2.0701 0.1781 0.6587 -1.6422 1.2441 -2.6251 -2.2917 -0.6845 1.8857 -2.6539 0.5826 -2.0363 -0.4015 1.5191 -1.9227 -1.1130 0.0290 1.3285 -3.4706 -0.5140 -0.0233 -3.4016 -0.9546 1.2747 -2.4912 0.1427 -0.6629 -1.2347 0.4252 0.0502 -0.1642 1.1286 -0.6514 1.3925 1.5919 -0.0444
4.2057 -1.5787 -1.9303 0.5360 0.1675 2.4242 1.8219 1.4156 0.6714 4.1783 -2.0302 0.3625 3.3829 -1.0755 1.2212 4.8659 -1.2781 -0.6722 1.9741 -1.1461 0.7909 -0.9779 -0.4949 -2.3062 -3.5410 1.5641 1.3917 -2.2647 -0.1347 -2.1579 -0.0140 -0.3289 -1.2332 -2.1034 1.1925 1.3362 -3.9523 0.8285 -0.6942 -4.4268 1.3961 0.4617 -2.6832 0.4426 -0.8943 -1.7012 0.6212 0.1884 -0.3261 0.1769 -0.0190 1.0259 0.2621 1.0592
6.4719 -2.2702 -0.6261 0.5599 -0.6744 1.8747 1.3053 1.5089 0.8978 4.2347 -1.8666 -0.0878 3.3766 -0.8705 0.6530 5.5946 -1.7491 0.4052 2.1361 -0.6706 -0.1206 -1.4693 -0.1042 -2.5301 -3.5745 1.4039 1.6894 -2.7157 0.2821 -2.2020 -0.3970 -0.1328 -1.5512 -2.1685 1.0024 1.4276 -4.2120 1.0583 -0.4430 -4.5464 1.4401 0.8326 -2.9881 0.6677 -0.8300 -1.9027 0.6349 0.1622 -0.5703 0.2055 -0.2555 0.8656 0.1348 0.7038
2.7637 -3.4382 -0.2388 1.2228 2.1762 1.3837 2.2096 2.4530 -0.9001 3.0464 -1.8137 1.4125 2.2032 -0.5641 1.4900 2.2104 -2.9286 1.0032 2.3383 0.1627 0.2136 -1.4207 1.2678 -2.6812 -2.2239 -0.8489 1.7193 -2.4412 0.5621 -2.1636 -0.2247 1.5529 -1.9093 -1.0488 -0.0696 1.2505 -3.3176 -0.6324 -0.2347 -3.2954 -1.1254 1.0459 -2.3314 0.0808 -0.7992 -1.1209 0.3771 -0.0146 -0.0431 1.1462 -0.6334 1.4731 1.6420 0.0562
3.3256 -2.2865 2.9031 1.6168 1.2605 0.8956 2.1933 1.4907 -1.5393 3.7056 -1.2206 0.8662 3.1915 -1.2585 -0.5540 3.5282 -2.5212 1.4850 1.7690 -0.8611 -0.5644 -1.9000 1.3510 -2.6173 -2.4212 -0.4546 1.9609 -2.9642 1.0005 -1.8737 -0.5468 1.2579 -2.1002 -1.1795 -0.0951 1.2274 -3.7646 0.1409 0.2571 -3.6395 -0.3458 1.5342 -2.7399 0.5046 -0.5285 -1.3661 0.3917 -0.0113 -0.2529 0.8121 -0.8592 1.4447 0.8333 -0.4817
3.7533 -2.0269 2.7231 1.7733 1.2003 0.9517 2.1495 2.1649 -1.3234 2.9876 -2.0820 0.5196 1.8260 -1.5887 -0.3068 2.5625 -2.1632 1.9052 2.2514 -0.3734 -1.0265 -1.8096 1.3505 -2.5841 -2.1333 -0.6296 1.9395 -2.8271 0.8535 -1.8597 -0.4557 1.3933 -2.0628 -0.9444 -0.0862 1.2335 -3.5251 -0.1703 0.2329 -3.3493 -0.6777 1.4959 -2.5500 0.3505 -0.5273 -1.1769 0.4007 0.0027 -0.1143 0.9647 -0.8269 1.5821 1.1196 -0.4866
3.9802 -3.1844 0.9367 1.1760 -0.8037 1.2370 1.3381 1.6816 0.9722 4.3420 -1.3021 -0.3996 3.8062 0.0894 -0.1636 4.6573 -1.9014 0.8848 2.4521 0.1643 -0.7428 -1.4563 0.2437 -2.6422 -3.2742 0.7355 1.9347 -2.7015 0.3506 -2.1457 -0.2879 0.2551 -1.7788 -1.8601 0.6257 1.4903 -4.0879 0.5925 -0.1589 -4.3311 0.7258 1.1855 -2.8700 0.4824 -0.7101 -1.6862 0.5001 0.1639 -0.3611 0.3779 -0.4366 1.1644 0.3670 0.3732
3.1899 -3.3868 -1.0912 0.6372 0.9451 2.5454 1.5537 2.2890 0.6515 3.9717 -1.3961 -0.1542 3.3773 -0.0144 -0.0192 3.4941 -1.9984 -1.3856 2.5321 -0.0069 1.1886 -0.4967 -0.7890 -1.9860 -3.6007 1.2425 1.2883 -1.8350 -0.6791 -1.9221 0.3601 -0.2325 -0.9553 -2.1170 1.1723 1.3172 -3.7507 0.1427 -0.6687 -4.3865 0.7696 0.3735 -2.4216 0.0008 -0.7823 -1.5501 0.5467 0.2718 -0.1024 0.3975 0.1464 1.1448 0.9969 1.1821
4.3661 -1.5714 2.2882 1.0510 -0.8524 1.2458 1.7920 1.2791 0.1563 4.0439 -1.8913 -0.0044 3.5516 -0.8438 -0.9727 4.8934 -1.2401 0.9772 2.0842 -0.9510 -1.0748 -1.7186 0.3659 -2.6760 -3.0222 0.8993 2.0678 -2.8865 0.6142 -2.0578 -0.4876 0.1764 -1.9293 -1.6865 0.6057 1.4866 -4.0351 0.9594 0.0596 -4.1338 1.0675 1.4242 -2.9022 0.6976 -0.6091 -1.6544 0.5034 0.1470 -0.4228 0.2119 -0.5806 1.1676 -0.0305 0.0519
5.7522 -0.3741 -1.1337 0.2944 -0.2932 2.5518 1.6585 1.0268 0.9286 4.1465 -1.4153 0.2071 2.7032 -1.5504 -0.2074 4.9704 -1.5867 -0.9754 1.8662 -1.5148 1.0042 -1.2741 -0.9555 -2.0676 -3.2965 2.1346 1.2267 -2.4366 -0.2815 -2.0206 -0.3018 -0.8685 -0.9931 -1.9826 1.4415 1.2708 -3.8544 1.2459 -0.7640 -4.1883 2.0586 0.2899 -2.7103 0.5528 -0.8653 -1.7180 0.6488 0.2183 -0.4801 -0.1188 0.1155 0.8514 -0.1500 1.2143
2.1792 -3.0990 0.0765 1.4637 0.0257 1.8750 1.0955 2.4062 1.2084 3.2232 -1.2163 -0.8458 3.6955 -0.1279 0.0891 3.4688 -2.5024 -0.2201 2.8052 1.0387 -0.0518 -0.6652 -0.3200 -2.3687 -3.3150 0.7602 1.6734 -1.9745 -0.3942 -2.0707 0.3057 0.1612 -1.4022 -1.8475 0.8614 1.4543 -3.7086 -0.0203 -0.4014 -4.2041 0.3521 0.8240 -2.4131 0.0182 -0.7488 -1.4233 0.4885 0.2348 -0.0157 0.5451 -0.1489 1.3300 1.0227 0.8229
4.9054 -0.4055 1.5881 0.6894 -0.9512 1.8092 1.8140 0.7566 0.3689 4.2516 -1.7784 -0.1860 3.0726 -1.3824 -1.0428 5.0053 -0.5839 0.1505 1.8382 -1.7260 -0.3133 -1.6412 -0.2968 -2.5031 -3.0178 1.6330 1.8414 -2.7611 0.3097 -2.0713 -0.5007 -0.5024 -1.6278 -1.7382 0.9778 1.4658 -3.9072 1.3831 -0.2107 -4.0423 1.8407 1.0764 -2.8207 0.7616 -0.6933 -1.6685 0.5434 0.1961 -0.4861 -0.1312 -0.3293 1.0073 -0.4480 0.4812
0.9587 -2.9256 -0.3375 1.3929 1.0091 1.9894 1.5485 2.8710 0.3269 2.9024 -1.6452 -0.3260 3.3885 -0.5196 0.5519 2.0805 -2.5218 0.4888 2.9471 0.7626 -0.0283 -0.5521 0.1253 -2.5512 -2.9270 0.1372 1.7924 -1.7828 -0.2544 -2.1656 0.4089 0.6599 -1.6030 -1.5413 0.5690 1.4763 -3.3679 -0.4615 -0.3317 -3.7978 -0.3521 0.9675 -2.1469 -0.1171 -0.7676 -1.1712 0.4269 0.1922 0.1613 0.7922 -0.2803 1.4983 1.4442 0.6059
5.6636 -1.6789 1.1734 0.5569 -1.4002 1.6848 1.4416 0.8457 1.0426 4.3207 -0.2471 -0.0934 3.1069 -0.3777 -0.9860 5.1052 -1.4683 -0.1497 2.1063 -1.2238 -0.3061 -1.6382 -0.4808 -2.4371 -3.1442 1.7027 1.7413 -2.7764 0.1363 -2.0726 -0.5180 -0.6190 -1.5223 -1.8466 1.0446 1.4376 -3.9852 1.3010 -0.3076 -4.1569 1.8362 0.9449 -2.8747 0.6774 -0.7290 -1.7386 0.5405 0.1966 -0.5312 -0.1412 -0.2598 0.9088 -0.4475 0.6421
0.6907 -3.4261 0.8351 1.0680 2.7740 1.2446 2.4756 2.2958 -0.7707 2.4191 -1.8607 0.8870 2.8278 -0.5552 0.2502 1.4824 -2.5353 0.0067 2.3052 0.5456 1.0828 -1.0619 0.9642 -2.6717 -2.0486 -0.8225 1.8365 -2.0468 0.1962 -2.1736 0.0307 1.4344 -1.8395 -0.9172 0.0312 1.3904 -2.9671 -0.9182 -0.2158 -3.0135 -1.2845 1.1062 -2.0107 -0.1554 -0.7659 -0.9140 0.3386 0.0822 0.1425 1.1443 -0.5249 1.5380 1.8336 0.2403
5.8180 -1.5677 0.6422 2.0583 -0.0993 -1.6823 0.8380 -1.8807 -0.3969 3.9073 -0.4197 1.3437 2.4552 -0.5813 1.7214 4.4816 -1.7452 1.1822 1.6379 0.2595 0.8287 -1.5233 2.1107 -2.1890 -3.0808 -0.7090 1.5701 -2.6913 2.0042 -1.5307 -0.3796 1.2825 -1.8471 -1.7460 -0.6642 0.9176 -3.9408 0.8805 0.2283 -4.1241 -0.0054 1.2613 -2.7973 1.0362 -0.4536 -1.6322 0.2086 -0.0966 -0.3938 0.3672 -0.8535 1.1129 -0.4770 -0.6457
6.2118 -0.3483 -0.1953 0.6421 -1.8045 1.5371 0.8942 0.6534 1.9362 4.2777 -1.5758 0.2446 2.8627 -1.6699 -0.2721 5.1398 -1.0990 -0.8224 2.1816 -0.3957 0.0199 -1.5158 -0.7269 -2.2517 -3.2184 2.0753 1.4552 -2.6255 0.0137 -2.0840 -0.4986 -0.8169 -1.2194 -1.9635 1.2860 1.3713 -3.8889 1.4808 -0.6091 -4.1321 2.1849 0.5439 -2.7996 0.7308 -0.8345 -1.7694 0.6345 0.2122 -0.5743 -0.1641 -0.0379 0.7763 -0.4582 1.0059
6.1012 -1.6079 -1.4073 0.5475 -1.7659 1.5847 0.8017 0.6978 1.9726 4.5572 -0.4596 -0.0873 3.4030 -0.6617 0.8628 5.2688 -1.7173 -0.2236 2.1546 -0.4107 0.1205 -1.3993 -0.5937 -2.3300 -3.4497 1.8590 1.4465 -2.5498 0.0858 -2.1812 -0.4358 -0.7020 -1.2497 -2.1488 1.1435 1.3851 -3.9638 1.3911 -0.6932 -4.3107 1.9968 0.4886 -2.8271 0.7100 -0.9009 -1.8537 0.5885 0.1975 -0.6049 -0.1305 -0.0365 0.7096 -0.4231 1.0513
4.1372 -2.6909 -2.0773 1.0982 -0.6881 2.3351 0.6498 1.7601 2.1070 3.5501 -0.7975 -0.8492 3.3796 -0.4290 0.6019 4.5215 -1.8698 -0.9437 2.4649 0.7243 0.6768 -0.6880 -1.1410 -1.7613 -3.5856 1.7847 0.9798 -1.9623 -0.7274 -1.8771 0.1548 -0.7104 -0.6598 -2.1697 1.3933 1.1968 -3.7663 0.5925 -0.9181 -4.3533 1.4270 0.0003 -2.4982 0.1593 -0.8616 -1.6435 0.5914 0.2561 -0.2562 0.1371 0.3095 0.9670 0.4844 1.4848
5.9083 -0.9989 2.2081 2.0714 0.4584 -1.6377 0.7295 -1.6624 -1.6518 3.6712 -0.8934 1.5520 2.5732 -1.6027 0.8008 4.8656 -1.7161 1.4970 1.4746 -0.6444 0.5847 -1.7065 2.3608 -2.0468 -2.9123 -0.7939 1.5703 -2.8027 2.1986 -1.2854 -0.5396 1.5109 -1.8915 -1.6539 -0.6972 0.7864 -3.8732 0.9344 0.4962 -3.9617 -0.0433 1.4553 -2.8040 1.1472 -0.2856 -1.6186 0.2885 -0.1261 -0.4512 0.5252 -0.9714 1.0299 -0.3719 -1.0545
6.2473 -0.3930 0.4233 0.1285 -1.8416 1.8034 1.3586 0.2874 1.3539 4.2137 -1.2952 -0.2721 2.8398 -0.9891 -0.8148 4.8953 -0.0481 0.0218 1.8627 -1.7815 -0.0440 -1.7321 -0.7179 -2.3208 -2.8517 2.1443 1.5582 -2.7263 0.1512 -2.0658 -0.6855 -0.9845 -1.3505 -1.7087 1.2119 1.3758 -3.7072 1.7138 -0.4774 -3.7938 2.4015 0.7073 -2.7393 0.8385 -0.7876 -1.6732 0.5768 0.1919 -0.6185 -0.3736 -0.1480 0.6904 -0.9013 0.8455
3.9846 -3.4899 2.3167 2.0738 1.9972 -1.2415 1.5527 -0.3993 -1.7824 2.9606 -1.6985 1.2272 3.1223 -0.2459 0.8531 4.2324 -2.1863 1.7287 1.7797 0.3324 0.6756 -2.1201 2.6300 -1.5612 -2.2635 -1.6159 0.9774 -3.1138 1.9160 -1.0049 -0.7368 2.1960 -1.4820 -1.0953 -0.9048 0.4003 -3.7323 -0.0680 0.2655 -3.5041 -1.2435 0.9370 -2.7828 0.6856 -0.3094 -1.3785 0.2503 -0.2263 -0.3411 1.0769 -0.8362 1.3621 0.7676 -0.9374
5.1790 -1.8273 1.2134 2.2372 0.2423 -1.4886 0.8322 -1.8120 -1.7549 3.3364 -0.7360 2.1383 2.1886 -0.0589 1.4281 4.5565 -0.5263 1.3791 1.5083 -1.0632 0.5875 -1.4284 2.3117 -1.9630 -2.9217 -0.9510 1.4431 -2.5464 2.1851 -1.2272 -0.3213 1.3825 -1.8292 -1.6398 -0.8952 0.6927 -3.7392 0.8967 0.4550 -3.9150 -0.1243 1.3549 -2.6392 1.0817 -0.2901 -1.5159 0.1377 -0.1579 -0.3116 0.3497 -0.9571 1.1404 -0.5933 -1.0241
4.5786 -3.0074 1.7945 2.0904 1.7796 -1.7118 1.6157 -0.6668 -1.4789 3.3463 -1.0648 1.4293 1.9599 -0.4721 1.4228 3.2350 -2.5039 1.5760 1.9975 0.7745 0.6365 -2.0008 2.6836 -1.3592 -2.2242 -1.7519 0.8253 -3.0035 1.9560 -0.8380 -0.6304 2.2075 -1.3452 -1.0477 -1.0357 0.2676 -3.6555 -0.1046 0.2779 -3.4517 -1.3380 0.8444 -2.6938 0.6633 -0.2558 -1.3037 0.1754 -0.2550 -0.2561 1.0133 -0.8357 1.4441 0.6920 -0.9947
4.4537 -1.8559 1.4786 0.8243 -2.4248 -0.5769 1.1726 -0.7902 1.2835 4.4316 0.0332 0.1044 3.1030 0.6414 -0.2824 4.3748 -0.4058 1.4882 2.3117 -0.3897 -0.9825 -1.5655 0.7186 -2.6520 -2.9107 0.5947 2.1082 -2.6367 1.1726 -1.9788 -0.4773 0.0357 -1.9772 -1.6867 0.0550 1.4619 -3.7423 1.3929 0.1766 -3.8818 1.2289 1.5319 -2.6954 0.9633 -0.5444 -1.5948 0.2629 0.1373 -0.4456 -0.1858 -0.6438 0.9650 -1.0472 -0.1325
4.4074 1.0787 -0.7364 0.1015 -1.3445 2.5284 1.5295 0.4080 1.4713 3.9340 -1.1040 -0.0481 2.6392 -1.8095 -0.3715 4.3040 -0.2944 -1.1951 1.8913 -2.0315 0.8801 -1.5344 -1.3546 -1.8798 -2.5114 2.5532 0.9954 -2.4369 -0.3595 -1.9434 -0.5628 -1.4344 -0.8029 -1.4678 1.5068 1.1517 -3.3174 1.6598 -0.9065 -3.3844 2.6487 0.0430 -2.4329 0.6513 -0.9018 -1.4463 0.5719 0.1867 -0.4785 -0.5210 0.1872 0.7660 -0.8250 1.3418
3.6791 -2.4158 -1.9478 0.6339 -0.7177 2.8792 0.9918 1.5838 1.9720 4.0116 -0.4899 -0.6736 3.0230 0.4101 0.0262 3.4088 -0.9906 -1.8958 2.5071 -0.3082 1.2081 -0.7935 -1.7098 -1.3190 -3.1745 2.2047 0.5491 -1.9320 -1.0742 -1.6468 0.0414 -1.2555 -0.2220 -1.8934 1.5882 0.9816 -3.4666 0.7434 -1.1366 -3.9226 1.8356 -0.4418 -2.3311 0.0822 -0.8663 -1.4866 0.5364 0.2509 -0.2401 -0.1695 0.5318 0.9436 0.1467 1.7509
4.1857 0.3098 -2.2437 0.0470 -1.1388 2.7700 1.4969 0.6086 1.7224 3.2708 -1.1719 -0.6909 3.2683 -1.4280 0.7973 3.6134 0.2225 -0.9137 1.9243 -1.8693 1.2160 -1.1864 -1.4745 -1.7689 -2.6474 2.5028 0.7897 -2.1457 -0.5513 -1.9596 -0.3088 -1.4327 -0.6133 -1.5548 1.5400 1.0878 -3.2367 1.4527 -1.1112 -3.4463 2.4838 -0.2298 -2.2918 0.5101 -0.9796 -1.3962 0.5563 0.1862 -0.3695 -0.4704 0.3312 0.7773 -0.6500 1.6100
5.1883 -0.7747 -1.7336 1.3477 -1.9853 1.5714 0.1733 -0.1970 2.8805 3.1622 0.0234 -0.8850 3.2118 -0.0150 0.6245 3.8274 -1.1589 -1.4031 1.9383 0.5108 1.1479 -0.9037 -1.1840 -1.9616 -3.1141 2.0637 1.0490 -1.9913 -0.4024 -2.0776 -0.1111 -1.2060 -0.7459 -1.8855 1.2585 1.2722 -3.4486 1.2285 -1.0132 -3.8685 2.0585 -0.0041 -2.3638 0.4415 -0.9577 -1.5401 0.4412 0.2635 -0.3820 -0.4447 0.3381 0.7599 -0.6582 1.6349
6.2519 0.1463 1.3666 0.9849 -2.1098 -1.5789 -0.0158 -2.3172 0.7141 4.1289 -0.2208 0.4700 2.9807 -1.1822 0.6477 5.3499 -0.8846 0.8878 1.7383 -0.4820 0.2746 -1.4011 1.2611 -2.5667 -3.0816 0.5841 2.0380 -2.4015 1.8079 -1.8543 -0.5482 0.2277 -2.0092 -1.9562 -0.0896 1.3391 -3.5974 1.8645 0.2620 -3.8648 1.4967 1.5569 -2.6191 1.3468 -0.4959 -1.7485 0.3024 0.0707 -0.6879 -0.2655 -0.7580 0.4876 -1.4858 -0.3646
4.8171 -1.7410 2.3168 2.0153 1.3365 -2.2504 1.1339 -1.0069 -2.1211 2.5842 -1.1240 2.0129 2.1024 -1.2324 0.5881 3.4578 -2.2498 2.2881 2.1025 0.1198 0.0027 -1.6823 2.8994 -0.9382 -2.3733 -1.7115 0.7242 -2.6950 2.2840 -0.3033 -0.4599 2.1956 -1.2797 -1.2022 -1.1316 0.0174 -3.5261 0.2205 0.6813 -3.4704 -1.1017 1.0447 -2.5493 0.8823 0.0429 -1.3123 0.1669 -0.3102 -0.2474 0.8911 -0.9999 1.3050 0.3027 -1.5163
5.8743 -0.6086 1.9187 1.7071 -1.0446 -1.9998 -0.0604 -2.5690 -1.0940 3.7279 -0.9089 1.0709 2.4258 -0.2207 0.7512 4.6930 0.0992 1.4637 1.4108 -1.2677 0.5434 -1.1832 2.0434 -2.1304 -3.0097 -0.3322 1.8077 -2.2282 2.2669 -1.3149 -0.3196 0.8887 -1.9623 -1.8365 -0.6767 0.9617 -3.5154 1.4979 0.6019 -3.8134 0.6722 1.6566 -2.4815 1.3286 -0.2365 -1.5906 0.1723 -0.0500 -0.4760 -0.0207 -0.9750 0.6755 -1.3199 -1.0129
4.6283 -1.7767 3.1231 2.0532 0.6173 -2.2313 0.4805 -1.2739 -2.6932 3.4818 -1.1635 1.1878 2.2942 -0.4055 0.6444 3.5891 -0.9025 2.6117 1.7185 -1.1915 -0.4614 -1.3723 2.8238 -1.0962 -2.6260 -1.4525 1.0549 -2.3798 2.4544 -0.2870 -0.3439 1.8866 -1.5101 -1.4639 -1.1430 0.1817 -3.4198 0.6523 0.9703 -3.5483 -0.6293 1.4434 -2.4306 1.0793 0.1723 -1.3853 0.1299 -0.2422 -0.3040 0.5975 -1.1073 1.0281 -0.3027 -1.7607
4.2708 1.0147 1.4650 0.1068 -2.9812 0.8988 1.1667 -0.8717 1.7135 3.8769 -0.3975 -0.3460 2.6049 -0.7507 -1.0756 3.7825 0.9812 0.0987 2.0155 -1.9440 -0.4372 -1.7150 -0.6421 -2.4072 -2.1190 2.0374 1.7324 -2.4695 0.4136 -2.0561 -0.7567 -1.2296 -1.4895 -1.2317 0.8809 1.4430 -3.0481 2.0110 -0.3162 -2.9725 2.5865 0.9275 -2.3128 0.9653 -0.7234 -1.3399 0.3661 0.2065 -0.5325 -0.7659 -0.2391 0.6738 -1.6740 0.6051
3.4210 1.6372 -0.0595 2.0024 -1.8167 -1.3594 -0.0710 -3.0389 -0.6554 2.4928 0.2739 1.5968 2.6144 -1.2162 1.3862 3.7253 0.8991 1.1529 1.2725 -1.7585 1.1077 -0.6142 1.3426 -2.4409 -2.7416 0.1688 1.8691 -1.6115 1.8859 -1.7210 0.0960 0.1601 -1.9877 -1.6305 -0.5100 1.1533 -2.9687 1.7599 0.2954 -3.3805 1.2309 1.4930 -1.9776 1.2648 -0.4614 -1.2577 0.0647 -0.0028 -0.1706 -0.4674 -0.8211 0.7995 -1.8800 -0.5451
4.9024 0.9781 -1.1006 1.0058 -2.9743 0.3862 -0.4154 -2.0552 2.2389 2.8572 0.0121 -0.5103 2.9187 -0.8232 0.7479 3.6830 1.1936 -0.3428 1.6351 -0.7028 1.4662 -0.9726 -0.5365 -2.4760 -2.4941 1.8805 1.5675 -1.7853 0.5161 -2.2754 -0.3400 -1.2318 -1.3688 -1.5706 0.7224 1.4549 -2.8314 2.0014 -0.6547 -3.1032 2.4886 0.5995 -2.0208 0.9649 -0.9152 -1.3626 0.2751 0.2049 -0.5035 -0.8711 -0.0771 0.3973 -1.8377 1.0548
1.9865 -3.2176 1.9676 2.3168 2.1272 -1.2265 1.5663 0.2203 -2.6621 2.9235 -1.0798 1.9022 2.3405 0.0879 1.1423 1.8453 -1.8649 2.4763 2.3780 -0.2394 -0.2961 -1.8206 2.7633 -0.5966 -1.7422 -2.1129 0.2402 -2.7310 1.8858 -0.1402 -0.4771 2.3473 -0.9557 -0.6666 -1.2309 -0.2833 -3.2171 -0.4258 0.4392 -2.9393 -1.7616 0.5884 -2.3485 0.4922 -0.0106 -0.9873 0.0702 -0.3814 -0.0338 1.0753 -0.8452 1.6065 0.8637 -1.3584
3.6495 -0.6238 -2.5097 0.5470 -2.4076 2.2882 0.4595 0.0222 2.8681 3.6053 0.3468 -0.3899 2.5655 0.5183 0.6899 2.9456 0.3399 -1.6835 2.2520 -0.8136 1.2435 -1.1113 -1.7566 -1.6156 -2.3295 2.4986 0.5960 -1.9293 -0.7417 -1.9435 -0.3448 -1.7460 -0.3836 -1.4032 1.4313 1.0550 -2.8417 1.4204 -1.3101 -3.0110 2.5189 -0.5053 -2.0441 0.3789 -1.0295 -1.2752 0.3807 0.2273 -0.3983 -0.7483 0.5286 0.6640 -1.0183 1.8743
2.6636 -2.1509 3.5696 2.1822 1.3300 -2.1952 0.7326 -0.5122 -3.0695 2.6608 -1.5429 1.3145 2.5695 -0.3740 0.3607 2.8299 -1.0316 2.6601 2.0588 -0.8836 -0.9254 -1.2837 2.9123 -0.3830 -2.2523 -1.8569 0.5005 -2.2442 2.2738 0.3069 -0.2301 2.1877 -1.0694 -1.1415 -1.2527 -0.2834 -3.1412 0.1346 1.0397 -3.1952 -1.2331 1.1327 -2.2099 0.8242 0.3625 -1.1400 0.0908 -0.3337 -0.1102 0.8419 -1.0487 1.2508 0.2426 -1.9389
3.5332 0.0436 3.3921 1.2673 -0.4406 -3.2477 0.2659 -2.2397 -1.8276 2.2994 -0.3810 1.4550 2.1102 -1.4654 0.4214 3.6068 -0.5407 2.0659 2.2414 -0.8585 -0.9173 -0.7589 2.6589 -1.1813 -2.5786 -1.1728 1.3674 -1.7116 2.5388 -0.2405 -0.0040 1.5111 -1.6490 -1.5178 -1.1530 0.3273 -2.9198 1.0475 1.2524 -3.2462 -0.1589 1.8192 -1.9893 1.2223 0.3021 -1.2384 0.0552 -0.1899 -0.2131 0.2486 -1.2124 0.8537 -0.9155 -1.9372
1.2038 1.5913 2.5590 1.9484 -1.3770 -2.5136 0.0977 -2.8064 -1.6164 2.3442 -0.2605 1.7117 2.7902 -0.8094 0.3784 2.2101 1.1805 1.5974 1.8643 -1.8932 -0.0037 -0.4398 2.0565 -1.8729 -2.3467 -0.7076 1.7625 -1.3555 2.2869 -0.9154 0.2357 0.7763 -1.9882 -1.3213 -1.0650 0.7481 -2.5841 1.3907 0.9847 -2.9474 0.4321 1.8974 -1.6783 1.2172 0.0107 -1.0032 -0.0846 -0.1140 -0.0002 -0.2645 -1.1604 0.9820 -1.6630 -1.4653

>  <OB_ATOM_TYPES> (1ydsA1)
C.3 O.2 O.2 C.3 C.3 N.3 N.3 C.ar C.ar C.ar C.ar C.ar C.ar N.ar C.ar C.ar C.ar S.O2

>  <ENSEMBLE_RMSD> (1ydsA1)
0.000 0.801 0.878 0.927 0.980 1.040 1.073 1.097 1.186 1.230 1.284 1.344 1.369 1.374 1.416 1.419 1.428 1.435 1.481 1.481 1.503 1.566 1.585 1.689 1.699 1.728 1.732 1.733 1.802 1.842 1.865 1.884 1.891 1.976 1.996 2.034 2.044 2.045 2.099 2.146 2.153 2.314 2.345 2.399 2.426 2.426 2.509 2.579 2.599 2.855

$$$$
