
 OpenBabel03071213D

 19 21  0  0  0  0  0  0  0  0999 V2000
    8.6500   20.4200   35.3740 O   0  0  0  0  0
    8.5210   16.8940   36.5830 O   0  0  0  0  0
    6.5180   16.7490   38.0750 O   0  0  0  0  0
    1.2590   22.2410   37.0340 O   0  0  0  0  0
    9.1110   20.1360   36.6980 C   0  0  0  0  0
    1.3740   21.0250   39.0150 N   0  0  0  0  0
    7.0470   19.8500   37.9560 O   0  0  0  0  0
    2.3800   20.6620   39.8120 C   0  0  0  0  0
    4.4450   19.6980   36.0730 C   0  0  0  0  0
    3.5440   20.1910   39.3810 N   0  0  0  0  0
    3.2090   20.1790   35.9160 N   0  0  0  0  0
    7.6790   18.0480   36.5420 C   0  0  0  0  0
    6.2900   17.7450   37.0850 C   0  0  0  0  0
    8.1990   19.1680   37.4400 C   0  0  0  0  0
    5.9050   18.9790   37.9010 C   0  0  0  0  0
    4.7840   19.6280   37.3620 N   0  0  0  0  0
    1.4950   20.9620   37.6150 C   0  0  0  0  0
    3.7140   20.0710   38.0510 C   0  0  0  0  0
    2.7580   20.4160   37.1670 C   0  0  0  0  0
  1  5  1  0  0  0
  2 12  1  0  0  0
  3 13  1  0  0  0
  4 17  2  0  0  0
  5 14  1  0  0  0
  6  8  1  0  0  0
  6 17  1  0  0  0
  7 14  1  0  0  0
  7 15  1  0  0  0
  8 10  2  0  0  0
  9 11  2  0  0  0
  9 16  1  0  0  0
 10 18  1  0  0  0
 11 19  1  0  0  0
 12 13  1  0  0  0
 12 14  1  0  0  0
 13 15  1  0  0  0
 15 16  1  0  0  0
 16 18  1  0  0  0
 17 19  1  0  0  0
 18 19  2  0  0  0
M  END
>  <MOLID> (2adaA1)
2adaA1

>  <SMILES_CANONICAL> (2adaA1)
OC[C@H]1O[C@H]([C@@H]([C@@H]1O)O)n1cnc2c1nc[nH]c2=O	

>  <FINGERPRINT> (2adaA1)
0000000000000000000000000000101000000001110000000001100000000000100000000000100000000000000000001000000000000001000001100000000000000000001110000000000011100000000000000000000011000001010000000000000000000000100011000000010000000000000000000000000000000000000001100100000000000001000000001000000110000000000000001011000000001100000000001000000000001100010000000000000110000000000000000000000000000000100100000000000000000011110010000000000100000000000000000000100000010000100000000000000000011110110000000000110000000000001000000000000000100000000000000000000010000000000000000001100111000000000000000000000000000000000000000001000000000001100000000000100000000001001000000001000000000000000000000101000000100111100000000000000001000000000011000011000000000000000101000001000000000000000001000000000011000000001000000000000000000010011000000000000000000010000000000001000000000100000000000111000000000000000000000100001000000000000000000100011000000000000000001100000000101000000000000000000000000000000000000000001010000000

>  <MACCS166> (2adaA1)
000000000000000000001000010000000000010000001000000011001000010010000001001111110110100011110011111000001000110010001011110010100011100111110110010101111111111010111000

>  <OB_MW> (2adaA1)
268.081

>  <OB_logP> (2adaA1)
-2.2689

>  <OB_PSA> (2adaA1)
133.49

>  <OB_MR> (2adaA1)
61.0951

>  <OB_ATOMIC_CHARGES> (2adaA1)
-0.2176084488 -0.2175319397 -0.215501984 -0.2633699582 0.2141899195 -0.1841295704 -0.3305149475 0.2030916273 0.1816525745 -0.2046758248 -0.2173112562 0.21616283 0.2337122722 0.1830577865 0.2409157576 -0.2692890376 0.3013747429 0.171083537 0.1746919198

>  <MCT_HBD> (2adaA1)
4

>  <MCT_HBA> (2adaA1)
9

>  <ENSEMBLE_TOTAL> (2adaA1)
3

>  <ENSEMBLE_COORDS> (2adaA1)
3.5509 0.7852 -2.0513 3.4219 -2.7408 -0.8423 1.4189 -2.8858 0.6497 -3.8401 2.6062 -0.3913 4.0119 0.5012 -0.7273 -3.7251 1.3902 1.5897 1.9479 0.2152 0.5307 -2.7191 1.0272 2.3867 -0.6541 0.0632 -1.3523 -1.5551 0.5562 1.9557 -1.8901 0.5442 -1.5093 2.5799 -1.5868 -0.8833 1.1909 -1.8898 -0.3403 3.0999 -0.4668 0.0147 0.8059 -0.6558 0.4757 -0.3151 -0.0068 -0.0633 -3.6041 1.3272 0.1897 -1.3851 0.4362 0.6257 -2.3411 0.7812 -0.2583
4.2741 1.1945 0.4549 3.7410 -2.5130 -0.1686 0.7434 -3.1044 -0.0315 -4.4658 1.9302 -0.0494 4.0003 0.5764 -0.7926 -2.9974 1.9557 1.7506 1.6153 0.2544 -0.6826 -1.7922 1.5504 2.2999 -1.4301 -0.4290 -1.6360 -0.9333 0.7842 1.6992 -2.5787 0.2040 -1.4591 2.7195 -1.6590 -0.3217 1.3456 -1.9275 -0.2553 2.8517 -0.3181 -0.5860 0.6915 -0.7356 -0.4694 -0.6104 -0.3910 -0.5127 -3.4242 1.5766 0.4883 -1.2946 0.3654 0.4416 -2.4558 0.6857 -0.1695
4.9104 0.4150 0.2607 3.4514 -2.3645 -1.5897 0.5753 -2.9072 -0.6991 -4.4842 1.2799 1.6117 4.0535 0.6463 -0.8467 -3.4761 2.1619 -0.2852 1.7845 0.3521 -0.0761 -2.3723 2.2229 -1.1207 -0.9469 -0.9146 1.6505 -1.2956 1.5136 -0.9663 -2.1574 -0.4614 1.9326 2.5940 -1.5228 -0.9966 1.2769 -1.7691 -0.5899 2.8758 -0.2186 -0.6719 0.8039 -0.6053 -0.0248 -0.3710 -0.2823 0.5528 -3.5544 1.3260 0.8167 -1.3172 0.6354 0.0911 -2.3507 0.4925 0.9510

>  <OB_ATOM_TYPES> (2adaA1)
O.3 O.3 O.3 O.2 C.3 N.ar O.3 C.ar C.ar N.ar N.ar C.3 C.3 C.3 C.3 N.ar C.ar C.ar C.ar

>  <ENSEMBLE_RMSD> (2adaA1)
0.000 0.962 1.939

$$$$
