
 OpenBabel03071213D

 13 12  0  0  0  0  0  0  0  0999 V2000
    4.5650   -7.3140   16.7990 O   0  0  0  0  0
    8.4930   -5.4480   13.5070 O   0  0  0  0  0
    5.0300   -3.9320   16.6890 O   0  0  0  0  0
    7.0100   -5.5630   15.7930 O   0  0  0  0  0
    5.5560   -8.9470   15.7340 O   0  0  0  0  0
    7.2480   -5.6210   11.7300 O   0  0  0  0  0
    3.6070   -4.6990   15.1790 O   0  0  0  0  0
    5.3160   -6.8540   14.5600 C   0  0  0  0  0
    6.2390   -4.7060   13.7100 C   0  0  0  0  0
    5.0960   -7.6980   15.7690 C   0  0  0  0  0
    7.3680   -5.4400   12.9720 C   0  0  0  0  0
    4.7540   -4.6240   15.6550 C   0  0  0  0  0
    5.8300   -5.4300   14.9510 C   0  0  0  0  0
  1 10  1  0  0  0
  2 11  1  0  0  0
  3 12  1  0  0  0
  4 13  1  0  0  0
  5 10  2  0  0  0
  6 11  2  0  0  0
  7 12  2  0  0  0
  8 10  1  0  0  0
  8 13  1  0  0  0
  9 11  1  0  0  0
  9 13  1  0  0  0
 12 13  1  0  0  0
M  END
>  <MOLID> (2cmdA1)
2cmdA1

>  <SMILES_CANONICAL> (2cmdA1)
OC(=O)C(CC(=O)O)(CC(=O)O)O	

>  <FINGERPRINT> (2cmdA1)
0000000000000101000000000000000000000001000000000000000000000000000000000000000000000000000000000000000000000000000000000000000000000000001010000000000000000000000000000000000000000000000000000000000000000000000000000000000000000000000000000000000000000000000000000000000000000000000000000000000000000010000000000000000000000000000000000000000000000000010000000000000001010000000000000001010000000000100000000010000000000010000000000000000000000000000000000000000000000000000000000000000000001000000000000000100000000000000000000000000000000000000000000000000000000000000000000000000101000000000000000000000000000000000000000000000000000001000000000000000000000000000000000000000000000000000010100000000000000101000000000000000000000000000000000000000000000000000100000000000000000000000000000000000000000000000000000000000000000000000000000000000000000000000000000000000000000000000000000000000000000000000000000000000000000010000000000000000000000000000000000000000000000000000000000000000000000000000000000000000000000000

>  <MACCS166> (2cmdA1)
000000000000000000000000000000000000000000000000000011000000000001000001000000000000000011100000000000010000000100000000001000000011000100110000010000010110101000010000

>  <OB_MW> (2cmdA1)
192.027

>  <OB_logP> (2cmdA1)
-1.2485

>  <OB_PSA> (2cmdA1)
132.13

>  <OB_MR> (2cmdA1)
37.4712

>  <OB_ATOMIC_CHARGES> (2cmdA1)
-0.2455452889 -0.2455452889 -0.2429129448 -0.2129148608 -0.2455452889 -0.2455452889 -0.2429129448 0.1560365471 0.1560365471 0.3679567876 0.3679567876 0.3927475973 0.2401876393

>  <MCT_HBD> (2cmdA1)
4

>  <MCT_HBA> (2cmdA1)
7

>  <ENSEMBLE_TOTAL> (2cmdA1)
50

>  <ENSEMBLE_COORDS> (2cmdA1)
-1.8989 -1.7397 1.6576 2.5438 1.3616 -1.7722 -0.6898 1.3466 2.1241 1.1423 0.1427 0.7807 0.0841 -2.7473 1.1514 1.5538 -0.5303 -2.5802 -1.9485 1.8491 0.3031 -0.7565 -0.9583 -0.2372 0.2827 1.0503 -1.2629 -0.7744 -1.9088 0.9226 1.5040 0.5102 -1.9424 -0.9947 1.2683 0.8051 -0.0478 0.3557 0.0502
-1.2020 -1.9754 1.8688 2.6486 0.4296 -1.4297 -1.4454 1.2318 2.0195 0.9200 0.4183 1.0947 0.4506 -2.7005 0.4706 1.0568 -0.5892 -2.7081 -1.6538 2.4506 0.1138 -0.8675 -0.7613 -0.1064 0.4291 1.1259 -1.1270 -0.4381 -1.9103 0.7531 1.3769 0.2084 -1.8397 -1.1399 1.5258 0.7297 -0.1355 0.5463 0.1607
-1.7488 -1.7034 1.8141 1.4104 -0.5666 -2.6419 -0.7044 1.6793 1.9158 1.1286 0.2941 0.7844 0.2654 -2.6748 1.3640 2.5520 1.2385 -1.8395 -2.1901 1.5193 0.2073 -0.6540 -1.0364 -0.1524 0.2090 0.9654 -1.3317 -0.6249 -1.8876 1.0817 1.5263 0.5815 -1.9342 -1.1039 1.2376 0.6983 -0.0657 0.3530 0.0341
-1.0642 -1.9499 2.5321 2.5675 0.0959 -1.6918 -0.5128 2.1125 1.2861 0.9177 0.0197 0.9326 -0.0314 -3.0595 0.8242 1.2938 1.9412 -2.1149 -1.7979 1.8002 -0.5592 -1.2180 -0.9951 0.4044 0.2577 -0.1145 -1.3672 -0.6898 -2.1194 1.2412 1.3989 0.7774 -1.7596 -0.9232 1.4084 0.2025 -0.1983 0.0832 0.0696
-0.1863 -2.0734 2.1407 2.0159 2.0683 -1.8625 -0.5908 1.4465 1.8635 1.3067 0.2154 0.6718 -2.2483 -2.0869 1.1665 2.2742 -0.1291 -2.4252 -2.0928 1.2107 0.1778 -0.3296 -1.3343 -0.0875 0.2063 0.6488 -1.4432 -1.0492 -1.8568 1.1206 1.6060 0.7810 -1.9591 -0.9880 0.9810 0.6535 0.0758 0.1287 -0.0169
0.3482 -2.6932 -0.1010 2.6113 0.5585 -1.3179 -1.0306 1.7147 2.1240 0.8847 0.3553 1.1212 -0.7627 -2.2345 1.8401 1.1060 -0.5394 -2.6341 -2.0796 2.0640 0.1423 -0.9507 -0.7486 -0.0560 0.3518 1.1372 -1.0661 -0.4587 -1.9491 0.6921 1.3629 0.2723 -1.7583 -1.1927 1.5241 0.7910 -0.1898 0.5388 0.2226
0.4758 -2.6241 -0.1349 2.5486 0.1064 -1.2400 -1.2389 1.6761 2.1056 0.8396 0.4293 1.2623 -0.6672 -2.2591 1.8071 0.9192 -0.3363 -2.7726 -2.0349 2.1086 0.0250 -0.8809 -0.7210 -0.0425 0.4844 1.1919 -0.9554 -0.3586 -1.9279 0.6727 1.3054 0.2298 -1.7611 -1.2301 1.5451 0.7560 -0.1624 0.5811 0.2777
0.1712 -2.3591 1.7360 2.1154 1.2294 -1.7759 -1.0208 2.0360 1.9424 0.8977 0.5209 1.0442 -0.4839 -2.7524 -0.4128 1.7845 -1.0275 -1.7699 -1.8137 2.3301 -0.1628 -1.1424 -0.7156 0.7038 -0.0252 0.4729 -1.2037 -0.4483 -2.0365 0.5761 1.3749 0.1098 -1.5967 -1.1107 1.7136 0.6268 -0.2987 0.4782 0.2924
0.0824 -2.3785 2.1001 2.2909 -0.2334 -2.1193 -1.4579 1.7368 1.3512 0.7798 0.5905 1.7404 -1.8526 -2.0070 0.9508 0.5290 1.0570 -2.7773 -1.7585 0.9648 -0.7612 0.2342 -1.0906 0.1470 1.2897 1.1080 -0.4821 -0.6498 -1.8493 1.0919 1.2882 0.6515 -1.9110 -1.0698 1.0481 0.2480 0.2945 0.4023 0.4215
-1.5434 -2.7277 0.1963 2.4264 0.0471 -1.6567 -0.3180 2.4832 1.2296 1.1562 0.3676 1.1343 0.2827 -2.7409 1.5669 0.8857 1.5458 -2.4254 -1.7914 1.7667 -0.3429 -0.9637 -0.7007 1.2081 0.2041 -0.2641 -0.9780 -0.6392 -2.1516 1.0250 1.1793 0.5665 -1.7564 -0.8162 1.5618 0.3686 -0.0626 0.2463 0.4305
0.6280 -2.4689 1.5168 2.4676 -0.2408 -1.4535 -0.7070 2.6078 0.8962 1.0031 0.7051 1.1045 -1.2689 -2.8783 0.3161 1.2740 1.5312 -2.2577 -2.1736 1.4454 -0.3887 -0.8901 -0.6941 1.2652 0.1768 -0.2006 -0.9770 -0.5551 -2.1217 0.9574 1.3382 0.4863 -1.6287 -1.1254 1.4966 0.2429 -0.1678 0.3322 0.4065
0.3566 -2.3716 1.6969 1.5412 -0.2983 -2.7848 -0.8715 1.9672 1.5646 1.0852 0.4388 0.8973 -1.8867 -2.0047 1.5084 2.6507 1.2599 -1.5408 -2.3823 0.9365 0.2207 -0.3711 -1.1383 -0.1639 0.2639 0.9843 -1.2958 -0.7449 -1.8599 1.0980 1.6221 0.6784 -1.8499 -1.2288 1.0775 0.6059 -0.0346 0.3300 0.0434
-1.2084 -2.5687 1.6560 1.1614 1.5608 -2.1390 -0.1704 2.6690 1.1089 0.2031 0.2215 1.9867 0.3845 -2.7892 0.0373 1.1506 -0.7147 -2.2899 -1.7117 1.8582 -0.3491 -0.9659 -0.7850 0.1603 1.2842 0.3578 -0.1277 -0.4915 -2.1414 0.5889 1.1730 0.3088 -1.6231 -0.7580 1.6741 0.3953 -0.0511 0.3488 0.5953
-0.9226 -2.3228 2.1674 1.8097 1.6250 -2.0266 -1.8816 1.5472 1.4298 0.9177 0.1161 0.8802 -0.0214 -2.8548 0.1382 2.0414 -0.6437 -1.9251 -0.2460 2.7212 0.3866 -1.2799 -0.8088 0.4246 -0.0610 0.3943 -1.3464 -0.6573 -2.1006 0.8576 1.3719 0.3674 -1.7799 -0.7861 1.6510 0.6386 -0.2848 0.3086 0.1550
-1.5135 -1.5912 2.3881 0.9187 1.9856 -2.5011 -0.2067 1.6766 1.5719 1.0876 -0.3982 0.7403 -0.3843 -3.1695 1.1866 2.6130 0.8153 -1.5187 -1.5045 1.8536 -0.2831 -1.1343 -1.1386 0.1203 0.3526 -0.0529 -1.4980 -0.9442 -2.0866 1.2642 1.4334 0.9405 -1.8097 -0.6668 1.2464 0.3713 -0.0509 -0.0809 -0.0321
-0.9032 -2.4444 2.0125 1.1711 -0.8214 -2.1565 -0.4015 2.7362 0.7041 0.1178 0.4762 1.9538 0.5649 -2.7807 0.2997 1.1556 1.4554 -2.2921 -1.8822 1.5934 -0.5839 -0.9184 -0.8726 0.2767 1.2495 0.3694 -0.1348 -0.3112 -2.1221 0.8382 1.1731 0.4272 -1.6323 -0.9114 1.6020 0.1610 -0.1039 0.3811 0.5537
-1.1114 -2.7660 -0.1948 1.8146 -0.8834 -1.7759 -0.2281 2.7631 0.6830 0.9887 0.4875 1.0558 0.5624 -2.5465 1.3418 1.8337 1.3960 -1.9091 -2.2579 1.7459 0.7410 -1.0338 -0.7583 1.0051 -0.1287 0.2373 -1.1091 -0.4104 -2.0991 0.7543 1.2696 0.3482 -1.6338 -1.0397 1.6753 0.6440 -0.2591 0.3999 0.3976
-0.2818 -3.2170 0.7809 2.6502 0.5826 -1.4430 -0.0535 2.2491 0.8272 0.9296 -0.1478 0.9738 -1.1218 -1.9635 2.4940 1.0838 2.0208 -2.2693 -2.0001 1.5471 -0.1063 -1.1599 -1.1178 0.2308 0.4113 -0.1151 -1.3621 -0.8590 -2.1121 1.3104 1.3844 0.9632 -1.7363 -0.8508 1.3172 0.2466 -0.1324 -0.0066 0.0533
-1.8966 -1.7841 1.5557 1.0827 -0.2978 -2.8575 -2.0478 1.5949 0.1652 1.1678 0.2174 0.8977 0.1748 -2.6817 1.2208 2.7096 0.8079 -1.7009 -0.8093 1.5947 2.0707 -0.6396 -0.9300 -0.2292 0.3820 1.1554 -1.1572 -0.7042 -1.8875 0.9224 1.5330 0.5479 -1.9006 -0.9582 1.2594 0.9037 0.0058 0.4036 0.1092
-0.9015 -2.3678 1.9025 1.4179 -0.9286 -1.9142 -0.6783 2.4413 -0.6700 0.0998 0.4483 1.9299 0.5785 -2.7772 0.2193 1.3345 1.2842 -2.4349 -2.0736 1.7963 0.9919 -0.8576 -0.8325 0.1313 1.2450 0.5864 -0.1244 -0.2854 -2.0823 0.7313 1.3017 0.3837 -1.6097 -1.0604 1.6105 0.3279 -0.1208 0.4378 0.5192
-1.5796 -1.7605 1.7844 1.9726 -0.9632 -1.8026 -2.1086 1.2693 -0.0812 1.1775 1.4625 0.5889 -0.4995 -2.6784 -0.0030 1.9156 1.2250 -2.4467 -1.2142 1.6730 1.9632 0.4079 -0.7234 1.0921 0.0766 0.2821 -1.2016 -0.5907 -1.8192 0.8606 1.4141 0.2674 -1.8773 -1.1052 1.2266 0.8279 0.1336 0.5389 0.2953
0.8269 -2.5989 0.2236 2.0034 -0.6379 -1.9021 -1.5550 2.0282 1.5559 0.3447 0.3897 1.8666 -0.7982 -2.5028 1.8207 0.5117 0.9322 -2.6175 -1.5085 2.0018 -0.7101 -0.7187 -0.8374 0.0760 1.1671 0.8339 -0.2885 -0.2545 -2.0505 0.8245 1.1522 0.4006 -1.7240 -1.1010 1.5726 0.3619 -0.0702 0.4684 0.5131
0.3714 -2.3889 1.6570 1.8533 1.3133 -1.9519 -1.9408 1.6507 1.5841 0.9160 0.5439 1.0330 -0.6583 -2.7935 -0.3379 1.8634 -0.9541 -1.6914 -0.7199 2.8114 0.0675 -1.1025 -0.7462 0.8629 -0.1208 0.3251 -1.1755 -0.4477 -2.0734 0.6262 1.2967 0.1252 -1.6170 -1.0004 1.7515 0.6134 -0.3104 0.4351 0.3296
-1.6838 -1.8684 1.5315 2.2153 1.1784 -2.1222 -2.0663 1.2499 0.2085 1.3308 1.2904 0.8449 -0.8394 -2.4000 -0.5198 1.6683 -1.0355 -2.0463 -1.0002 1.6863 2.1630 0.3437 -0.8638 0.9251 0.1669 0.6252 -1.1314 -0.7756 -1.7799 0.5304 1.4184 0.1333 -1.7938 -0.9834 1.2359 1.0247 0.2053 0.5481 0.3854
-1.5264 -2.0285 1.6693 2.2579 1.2076 -2.0999 -2.0007 1.4146 0.1384 1.3166 1.2775 0.8635 -1.0796 -2.2239 -0.5595 1.7025 -1.0054 -2.0639 -1.0691 1.4784 2.2056 0.3538 -0.8916 0.8649 0.1937 0.6463 -1.1472 -0.8186 -1.7697 0.5438 1.4533 0.1605 -1.7986 -0.9902 1.1988 1.0159 0.2069 0.5354 0.3678
0.1872 -2.8053 0.3702 1.8773 -1.0194 -1.8372 -1.2604 1.4616 2.0577 1.0472 1.5928 0.5193 -1.6634 -1.8466 1.2995 1.8555 1.1850 -2.4240 -2.1489 1.5427 -0.0318 0.4150 -0.6124 1.1494 0.0087 0.2416 -1.1897 -0.4945 -1.7885 0.9503 1.3424 0.2232 -1.8724 -1.2328 1.2360 0.7187 0.0667 0.5892 0.2900
-2.3985 -1.6200 1.6627 1.7080 2.2079 -1.5498 -1.6715 1.4778 0.5463 1.2767 -0.5472 0.2758 -0.3432 -2.6061 1.7353 2.1972 0.2725 -2.6551 0.2561 1.4730 1.7507 -0.9712 -1.2170 -0.1469 0.0767 0.5218 -1.5318 -1.1603 -1.8864 1.1823 1.4412 0.9513 -1.9766 -0.4219 1.0307 0.8336 0.0108 -0.0583 -0.1267
-2.0158 -1.6824 1.8603 2.5770 0.9665 -1.7480 -1.7308 0.5728 -0.5108 1.4374 0.9990 1.0243 -0.7701 -2.7985 0.3079 0.5096 1.1080 -2.7022 -1.0027 2.1112 0.9924 0.1645 -0.9113 1.5016 0.8877 -0.3830 -0.8381 -0.8987 -1.8996 1.1245 1.2644 0.6518 -1.8569 -0.8227 1.0773 0.3628 0.4003 0.1884 0.4820
0.6566 -2.6857 0.0466 1.8156 -0.7478 -1.9763 -1.6072 1.9834 1.5415 0.3581 0.4223 1.8889 -0.6028 -2.4493 1.9342 0.5649 1.0552 -2.5973 -1.3738 2.0982 -0.7095 -0.7675 -0.8243 0.1545 1.1932 0.7419 -0.2807 -0.2400 -2.0509 0.8378 1.1160 0.3872 -1.7361 -1.0533 1.6025 0.3630 -0.0596 0.4672 0.5333
-1.9670 -1.9344 0.8261 1.9600 -0.2639 -2.3652 -1.7156 0.8262 -0.5924 0.8690 0.3355 1.7735 -0.1228 -2.5567 2.0154 0.5253 1.4945 -2.5964 -1.1312 2.0513 1.2272 0.1088 -1.1547 0.0615 1.4271 0.9342 -0.4241 -0.6397 -1.9454 1.0927 1.2180 0.7692 -1.8995 -0.8912 1.1498 0.4354 0.3595 0.2945 0.4456
-1.9268 -2.0574 0.9014 1.5720 1.2583 -2.3853 -2.0936 1.0440 1.1326 1.4089 1.0209 0.7620 0.0293 -2.7614 -0.0358 1.8193 -0.9563 -1.8931 -0.6031 2.7492 0.9901 -0.0184 -0.7644 1.3235 -0.0618 0.2880 -1.0208 -0.6038 -1.9582 0.6322 1.2104 0.0963 -1.7894 -0.8564 1.5544 0.9082 0.1239 0.4864 0.4745
-2.5283 -1.7626 1.1916 0.7403 2.3178 -2.0314 0.1945 1.3377 1.6571 1.5362 -0.4749 0.4049 -0.6075 -2.0222 2.3970 2.5247 0.9016 -2.1498 -1.5776 1.3186 0.2361 -0.5190 -1.5768 0.0164 0.3327 0.0488 -1.5978 -1.1820 -1.8045 1.3421 1.3394 1.1070 -1.9382 -0.4910 0.8742 0.5833 0.2376 -0.2647 -0.1113
-0.6820 -1.7415 2.6090 0.5814 1.9913 -2.4044 -0.4608 1.5208 1.4704 1.5437 0.0682 0.7415 -2.3210 -2.0088 1.0436 2.6331 1.1510 -1.8663 -1.7678 0.9522 -0.2979 -0.0422 -1.6312 0.3543 0.6410 -0.1560 -1.4656 -1.1540 -1.8039 1.3420 1.4163 1.0493 -1.9055 -0.7396 0.8085 0.3507 0.3519 -0.1999 0.0281
-2.2704 -1.3715 1.8516 1.3159 2.3602 -1.5844 -1.5166 1.5680 0.3494 1.2655 -0.7045 0.2480 -0.4813 -2.7773 1.6754 2.4004 0.5377 -2.4251 0.2761 1.3406 1.7281 -1.0250 -1.2582 -0.1277 0.1396 0.3286 -1.6029 -1.1905 -1.8924 1.2212 1.4177 1.0503 -1.9106 -0.3581 0.9812 0.7461 0.0265 -0.1628 -0.1690
-2.3097 -1.5162 1.7231 2.6554 0.6955 -1.9703 -1.7620 1.2294 -0.2158 1.3231 -0.4289 0.5943 -0.2905 -2.4984 2.1267 1.0456 2.3122 -1.9509 -0.2189 1.6545 1.4005 -0.7410 -1.4692 -0.0154 0.4512 -0.0020 -1.5853 -1.0486 -1.8835 1.3926 1.3846 1.1445 -1.8363 -0.6074 0.9815 0.4555 0.1180 -0.2194 -0.1186
0.5622 -2.4645 1.7480 2.5392 0.1181 -1.4114 -2.1883 1.1900 -0.3454 1.0238 0.6893 1.1531 -1.2477 -2.8942 0.4266 0.9877 1.4328 -2.4471 -0.6598 2.6708 0.4559 -0.8927 -0.6760 1.3020 0.2817 -0.2942 -0.9181 -0.5672 -2.1221 1.0855 1.2771 0.5328 -1.6736 -0.9900 1.5205 0.2027 -0.1259 0.2966 0.4219
-1.4545 -2.8221 0.2397 2.3490 -0.0496 -1.7259 -1.9227 1.6497 -0.1476 1.1351 0.2695 1.0946 0.3011 -2.6559 1.6887 0.9443 1.6378 -2.3467 -0.1646 2.6084 0.9274 -1.0324 -0.7090 1.1504 0.1165 -0.2155 -1.0338 -0.6223 -2.1492 1.0704 1.1529 0.5843 -1.7649 -0.7011 1.6205 0.4448 -0.1012 0.2310 0.4029
-1.2949 -2.8696 0.1137 2.4199 0.1582 -1.6202 -1.8503 1.6838 -0.2416 1.0932 0.1932 1.1374 0.1212 -2.6482 1.8886 0.8676 1.6247 -2.4225 -0.1547 2.5552 0.9945 -1.1010 -0.7342 1.0561 0.1798 -0.2349 -1.0441 -0.6613 -2.1677 1.0833 1.1626 0.6402 -1.7620 -0.6750 1.6010 0.4330 -0.1070 0.1981 0.3839
-0.7588 -2.5046 1.9141 1.6621 1.5233 -1.9782 -1.7117 1.6332 -0.5638 0.1689 0.3617 2.0208 0.1006 -2.8663 -0.1677 0.7589 -0.5426 -2.3274 -0.3182 2.7556 0.8318 -1.0458 -0.7982 0.3306 1.2503 0.2163 -0.0825 -0.4816 -2.1538 0.6358 1.1684 0.3279 -1.5752 -0.7048 1.7017 0.3421 -0.0883 0.3457 0.6197
-1.0165 -2.5030 -0.6856 1.9566 1.3179 -1.8675 -2.0713 1.8688 0.6861 1.0709 0.2549 1.0295 0.1686 -2.7239 1.2522 1.5389 -0.9231 -1.9961 -0.1065 2.5663 1.5865 -1.1121 -0.7191 0.8329 -0.1190 0.5781 -1.0806 -0.5564 -2.0743 0.5141 1.2016 0.2081 -1.6830 -0.7539 1.7222 0.9819 -0.2009 0.4271 0.4297
-1.2236 -2.3511 2.0232 1.0946 -0.6540 -2.3370 -1.7485 1.3955 -0.7649 0.2540 0.4004 1.8908 0.5990 -2.8214 0.7308 1.2450 1.6217 -2.2889 -0.6652 2.6583 0.7779 -0.8210 -0.9338 0.2067 1.3038 0.3584 -0.2310 -0.3727 -2.1292 0.9921 1.1970 0.5440 -1.7151 -0.8340 1.5820 0.2195 -0.0285 0.3294 0.4960
-1.7695 -1.3642 2.2207 0.9085 2.2075 -2.3091 -1.5824 1.5922 0.0182 1.1764 -0.6585 0.5370 -0.6241 -3.1336 1.3485 2.6224 0.8669 -1.6201 0.1334 1.6515 1.5070 -1.0974 -1.2077 -0.0264 0.3388 0.0615 -1.5718 -1.1096 -2.0179 1.2358 1.4309 1.0626 -1.8068 -0.4402 1.1095 0.5723 0.0129 -0.1698 -0.1054
-0.0564 -2.5263 1.9000 0.5260 1.3359 -2.6256 -1.7292 0.8942 -0.5944 0.8870 0.3775 1.7610 -1.9721 -1.9792 0.7892 2.1564 -0.2198 -2.2725 -1.2843 1.9023 1.3915 0.1557 -1.1066 0.0467 1.3187 1.0982 -0.4308 -0.7633 -1.8864 0.9387 1.3889 0.6340 -1.8541 -0.9622 1.1287 0.5002 0.3347 0.3476 0.4502
-0.1967 -2.9088 0.0110 2.1082 -0.4462 -2.0809 -1.8049 2.0116 -0.3005 0.9229 0.1120 0.9164 -0.5382 -2.3903 2.2068 1.8535 1.7885 -1.6883 -0.7114 2.0974 1.6871 -1.2499 -0.8643 0.4790 0.0138 0.2606 -1.3277 -0.6243 -2.1137 1.0199 1.4103 0.6508 -1.7004 -0.9139 1.5483 0.6121 -0.2694 0.2540 0.1653
-0.2395 -2.5791 -0.1254 1.8881 -0.9274 -1.8041 -2.2635 0.6501 0.3839 1.1631 1.5004 0.5709 -1.4512 -2.0369 1.7277 1.8250 1.2462 -2.4914 -1.1487 2.1912 1.6204 0.4482 -0.6894 1.0894 0.0076 0.3408 -1.1869 -0.5392 -1.8096 0.9471 1.3297 0.3027 -1.8940 -1.1338 1.2403 0.8501 0.1142 0.5706 0.3125
-1.6400 -2.6456 -0.1385 1.1299 1.7795 -2.1497 -1.6785 1.9909 0.1900 1.1915 0.0095 0.9646 0.0837 -2.8228 1.3461 2.1525 -0.2510 -1.9529 0.1026 2.3836 1.5454 -1.0766 -0.7189 1.0654 -0.0821 0.0700 -1.0990 -0.7792 -2.1623 0.7890 1.1976 0.4854 -1.7583 -0.5082 1.6442 0.7859 -0.0931 0.2375 0.4123
-0.2727 -2.8323 1.5484 1.4429 2.3077 -1.5748 -1.7675 1.4528 0.1440 1.2507 -0.4705 0.4317 -2.0964 -1.5304 1.9792 2.4705 0.4327 -2.3727 -0.0645 1.5575 1.6470 -0.9142 -1.3099 -0.1161 0.1934 0.3200 -1.5837 -1.1730 -1.8650 1.2529 1.5005 0.9903 -1.8817 -0.5778 1.0485 0.6601 0.0081 -0.1014 -0.1344
0.2648 -2.7371 0.2277 1.8034 -1.0716 -1.7226 -2.2955 0.9236 0.1007 1.0789 1.5869 0.5953 -1.6583 -1.9339 1.1505 1.9725 1.1120 -2.3551 -1.2772 2.0380 1.7922 0.3601 -0.5967 1.1714 0.0172 0.3479 -1.1638 -0.4829 -1.7949 0.8500 1.3670 0.2068 -1.8013 -1.2096 1.2903 0.8255 0.0594 0.6287 0.3294
-1.9988 -1.7334 1.7758 0.2282 0.7458 -2.7905 -1.7703 0.6363 -0.2770 1.5422 0.9411 0.9930 -0.5913 -2.8439 0.3654 2.2759 1.2105 -1.8975 -0.7589 2.2761 0.9242 0.1664 -0.8739 1.5500 0.8174 -0.4035 -0.8384 -0.8207 -1.9239 1.1351 1.2105 0.6140 -1.8678 -0.7326 1.1603 0.4233 0.4323 0.1947 0.5045
-0.9734 -2.6678 0.1194 2.5882 1.0304 -1.7827 -1.7114 0.6070 -0.4836 1.4824 0.8910 0.9939 -1.9316 -1.7761 1.9869 0.5003 1.3817 -2.6318 -0.9920 1.9157 1.2270 0.2884 -1.0984 1.3319 0.8609 -0.3286 -0.9628 -1.0000 -1.8533 1.1999 1.2574 0.7955 -1.8732 -0.8028 0.9906 0.4483 0.4336 0.1123 0.4269

>  <OB_ATOM_TYPES> (2cmdA1)
O.co2 O.co2 O.co2 O.3 O.co2 O.co2 O.co2 C.3 C.3 C.2 C.2 C.2 C.3

>  <ENSEMBLE_RMSD> (2cmdA1)
0.558 0.663 0.861 0.893 0.993 1.001 1.025 1.053 1.066 1.102 1.128 1.148 1.151 1.152 1.152 1.189 1.237 1.238 1.247 1.254 1.258 1.259 1.274 1.283 1.283 1.286 1.291 1.311 1.313 1.319 1.322 1.327 1.361 1.376 1.378 1.407 1.428 1.441 1.441 1.443 1.445 1.460 1.488 1.490 1.501 1.515 1.538 1.544 1.549 1.559

$$$$
