
 OpenBabel03071213D

 11 12  0  0  0  0  0  0  0  0999 V2000
   46.4820   42.0740   13.5650 C   0  0  0  0  0
   48.3960   43.5290   13.0360 C   0  0  0  0  0
   47.0830   44.2190   16.0310 C   0  0  0  0  0
   44.1970   44.4970   15.5710 O   0  0  0  0  0
   46.5380   45.8920   12.5690 C   0  0  0  0  0
   46.8560   45.9770   14.1000 C   0  0  0  0  0
   44.5620   44.3190   13.0940 C   0  0  0  0  0
   45.9870   44.4340   12.4320 C   0  0  0  0  0
   44.9130   44.4510   14.5860 C   0  0  0  0  0
   46.8750   43.5850   13.4160 C   0  0  0  0  0
   46.5080   44.5280   14.6470 C   0  0  0  0  0
  1 10  1  0  0  0
  2 10  1  0  0  0
  3 11  1  0  0  0
  4  9  2  0  0  0
  5  6  1  0  0  0
  5  8  1  0  0  0
  6 11  1  0  0  0
  7  8  1  0  0  0
  7  9  1  0  0  0
  8 10  1  0  0  0
  9 11  1  0  0  0
 10 11  1  0  0  0
M  END
>  <MOLID> (2cppA1)
2cppA1

>  <SMILES_CANONICAL> (2cppA1)
O=C1C[C@@H]2C([C@@]1(C)CC2)(C)C	

>  <FINGERPRINT> (2cppA1)
0000000000000001000000000000000000000001000000000000000000000000000000000000000000000000000000000000000000000000000000000000000000000000000000000000000000000000000000000000000000000000000000000000000000000000000000000000000000000000000000000000000000000000000000000000000000000000000000000000000000000000000000000000000000000000000000000000000000000000010000000000000000010000000000000000010000000000100000000000100000000000000000000000000000000000000000000000000000000000000000000000000000000000000000000000000000000000000000000000000000000000000000000000000000000000000000000000001000000000001000000000000000000000000000000000000000000001000000000000000000000000000000000000000000000000000000100000000000000000000000000000000000000000000000000000000000000000000100000000000000000000000000000000000000000000000000000000000000000000000000000000000000000000000000000000000000000000000000000000000000000000000000000000000000000000000000010000000000000000000000000000000000000010000000000000000000000000000000000000000000000000

>  <MACCS166> (2cppA1)
000000000000000000000000000000000000000000000000000000000000000001000000010000000000000000000001000000001001000100110100000000101001000100011010011011010100001100011000

>  <OB_MW> (2cppA1)
152.12

>  <OB_logP> (2cppA1)
2.4017

>  <OB_PSA> (2cppA1)
17.07

>  <OB_MR> (2cppA1)
45.636

>  <OB_ATOMIC_CHARGES> (2cppA1)
0.0004199789 0.0004199789 0.0073367017 -0.2960841614 0.0008619805 0.0069293287 0.0644779225 0.0077258708 0.1498421084 0.0065549558 0.0515153351

>  <MCT_HBD> (2cppA1)
0

>  <MCT_HBA> (2cppA1)
1

>  <ENSEMBLE_TOTAL> (2cppA1)
1

>  <ENSEMBLE_COORDS> (2cppA1)
0.2641 -2.2446 -0.3484 2.1781 -0.7896 -0.8774 0.8651 -0.0996 2.1176 -2.0209 0.1784 1.6576 0.3201 1.5734 -1.3444 0.6381 1.6584 0.1866 -1.6559 0.0004 -0.8194 -0.2309 0.1154 -1.4814 -1.3049 0.1324 0.6726 0.6571 -0.7336 -0.4974 0.2901 0.2094 0.7336

>  <OB_ATOM_TYPES> (2cppA1)
C.3 C.3 C.3 O.2 C.3 C.3 C.3 C.3 C.2 C.3 C.3

>  <ENSEMBLE_RMSD> (2cppA1)
0.000

$$$$
