
 OpenBabel03071213D

 18 17  0  0  0  0  0  0  0  0999 V2000
   29.5550   13.5990   12.9420 C   0  0  0  0  0
   17.9020    4.6540    7.7630 O   0  0  0  0  0
   18.6630    6.6120    6.9800 O   0  0  0  0  0
   28.4970   12.6550   13.5070 C   0  0  0  0  0
   27.0700   13.1150   13.2420 C   0  0  0  0  0
   26.0980   12.7170   14.3500 C   0  0  0  0  0
   24.9500   11.8350   13.8770 C   0  0  0  0  0
   23.8190   11.6650   14.8740 C   0  0  0  0  0
   23.2060   10.2700   14.8950 C   0  0  0  0  0
   22.4270    9.8610   13.6440 C   0  0  0  0  0
   21.8350    8.4720   13.7990 C   0  0  0  0  0
   21.1350    7.9030   12.5690 C   0  0  0  0  0
   20.7240    6.4750   12.8570 C   0  0  0  0  0
   19.7850    5.9060   11.8170 C   0  0  0  0  0
   20.2980    6.1910   10.4240 C   0  0  0  0  0
   20.2340    4.9100    9.5940 C   0  0  0  0  0
   20.2170    5.2060    8.1100 C   0  0  0  0  0
   18.8030    5.4620    7.6090 C   0  0  0  0  0
  1  4  1  0  0  0
  2 18  1  0  0  0
  3 18  2  0  0  0
  4  5  1  0  0  0
  5  6  1  0  0  0
  6  7  1  0  0  0
  7  8  1  0  0  0
  8  9  1  0  0  0
  9 10  1  0  0  0
 10 11  1  0  0  0
 11 12  1  0  0  0
 12 13  1  0  0  0
 13 14  1  0  0  0
 14 15  1  0  0  0
 15 16  1  0  0  0
 16 17  1  0  0  0
 17 18  1  0  0  0
M  END
>  <MOLID> (2ifbA1)
2ifbA1

>  <SMILES_CANONICAL> (2ifbA1)
CCCCCCCCCCCCCCCC(=O)O	

>  <FINGERPRINT> (2ifbA1)
0000000000000001000000000000000000000001000000000000000000000000000000000000000000000000000000000000000000000000000000000000000000000000000010000000000000000000000000000000000000000000000000000000000000000000000000000000000000000000000000000000000000000000000000000000000000000000000000000000000000000000000000000000000000000000000000000000000000000000010000000000000000010000000000000000010000000000100000000000100000000000100000000000000000000000000000000000000000000000000000000000000000001000000000000000100000000000000000000000000000000000000000000000000000000000000000000000000001000000001000000000000000000000000000000000000000000001000000000000000000000000000000000000000000000000000010100000000000000001000000000000000000000000000000000000000000000000000100000000000000000000000000000000000000000000000000000000000000000000000000000000000000000000000000000000000000000000000000000000000000000000000000000000000000000000000000000000000000000000000000000000000000000010000000000000000000000000000000000000000000000000

>  <MACCS166> (2ifbA1)
000000000000000000000000000000000000000000000000000000000000000000000000000000000000000001100000000000010001000001110100001000011011000100111000011010000110101100010000

>  <OB_MW> (2ifbA1)
256.24

>  <OB_logP> (2ifbA1)
5.5523

>  <OB_PSA> (2ifbA1)
37.3

>  <OB_MR> (2ifbA1)
80.7978

>  <OB_ATOMIC_CHARGES> (2ifbA1)
0 -0.2456538502 -0.2456538502 0 0 0 0 0 0 0 0 5e-10 1.445e-07 1.35559e-05 0.0005727412 0.0118027317 0.1140592609 0.3648592658

>  <MCT_HBD> (2ifbA1)
1

>  <MCT_HBA> (2ifbA1)
2

>  <ENSEMBLE_TOTAL> (2ifbA1)
50

>  <ENSEMBLE_COORDS> (2ifbA1)
6.7914 5.2378 0.8950 -4.8529 -3.6211 -3.9082 -3.4336 -2.7359 -5.4613 6.0042 4.4799 1.9346 4.6699 4.0766 1.3594 3.8142 3.4565 2.4354 2.4349 3.1885 1.8868 1.7162 2.2022 2.7728 0.4121 1.8017 2.1291 -0.0394 0.4736 2.6829 -1.2807 0.0172 1.9588 -1.4427 -1.4749 2.1227 -2.3869 -2.0146 1.0761 -1.6619 -2.1529 -0.2399 -2.4205 -3.0791 -1.1536 -2.1329 -2.7054 -2.5862 -2.5610 -3.8294 -3.4974 -3.6303 -3.3205 -4.4070
6.6217 5.9006 1.5019 -4.8885 -3.4386 -4.5023 -2.9235 -2.3676 -4.9473 6.1195 4.5184 1.8364 4.6369 4.4430 1.5725 4.0807 3.1677 2.1543 2.5921 3.1183 1.9202 2.0276 1.8416 2.4902 0.5249 1.8610 2.3670 -0.0196 0.4678 2.5544 -1.3543 0.3517 1.8603 -1.7801 -1.0945 1.8078 -1.3564 -1.7040 0.4942 -2.4226 -2.6519 0.0090 -2.0565 -3.1712 -1.3586 -3.2756 -3.7918 -1.9936 -2.9682 -4.2210 -3.4080 -3.5581 -3.2296 -4.3585
6.8459 5.1615 1.2877 -4.6056 -4.9374 -4.1878 -4.2237 -2.9149 -5.1724 5.5928 4.4020 0.9314 4.7603 4.1846 2.1702 3.8407 3.0082 1.9592 2.6737 3.0955 2.9105 1.9399 1.7784 2.9279 0.5241 1.9889 3.4069 -0.2868 0.7359 3.1833 -0.8106 0.7136 1.7688 -1.4067 -0.6362 1.4613 -1.5201 -0.7908 -0.0338 -2.1221 -2.1306 -0.3697 -1.9568 -2.3867 -1.8463 -2.8006 -3.5671 -2.2525 -2.5690 -3.8812 -3.7108 -3.8754 -3.8236 -4.4339
6.8864 5.4369 1.1924 -2.8545 -3.1985 -5.2795 -4.8933 -2.7898 -4.3406 5.9302 4.8729 2.2132 5.0370 3.8521 1.5549 3.9062 3.4887 2.4838 2.8258 2.7841 1.7032 1.7267 2.3458 2.6374 0.6423 1.6607 1.8455 -0.2572 0.8878 2.7776 -1.4402 0.3494 2.0120 -1.1768 -1.0795 1.6062 -2.2674 -1.5520 0.6787 -1.7696 -2.7260 -0.1254 -2.8713 -3.2326 -1.0220 -2.3034 -3.5259 -2.3876 -3.3245 -4.2463 -3.2346 -3.7966 -3.3278 -4.3152
6.7777 5.0322 1.0521 -4.8341 -3.3779 -4.8594 -2.5667 -3.1168 -4.8622 5.2901 4.7889 1.0283 4.8466 4.1990 2.3436 3.3745 3.8813 2.2732 2.9567 3.1061 3.4989 1.5185 2.6672 3.3640 1.4467 1.4053 2.5407 0.0138 0.9625 2.3832 -0.0958 0.1453 1.1219 -1.3536 -0.6847 1.1252 -1.3562 -1.5376 -0.1185 -2.5700 -2.4288 -0.1388 -2.4419 -3.4090 -1.2772 -3.7852 -3.5967 -1.9365 -3.6345 -4.4592 -3.1666 -3.5866 -3.5770 -4.3720
6.4919 5.5078 0.6645 -4.2728 -2.0363 -4.4694 -2.2331 -2.8438 -5.0971 5.6680 4.9127 1.7786 4.7906 3.8164 1.2286 3.7673 3.4197 2.2629 2.6465 2.6601 1.5992 1.6718 2.1802 2.6450 0.4922 1.5248 1.9725 -0.1966 0.5997 2.9448 -1.4513 0.0455 2.3175 -1.2212 -1.3836 1.8925 -2.3490 -1.8320 0.9976 -1.8472 -2.8818 0.0385 -2.9514 -3.2687 -0.9130 -2.3519 -3.6920 -2.2306 -3.4404 -3.8546 -3.2635 -3.2132 -2.8741 -4.3688
7.2352 5.0315 2.1905 -4.8559 -2.6333 -4.2750 -4.8614 -4.8608 -4.7688 5.9565 4.6385 1.4942 4.9131 4.2741 2.5200 3.7145 3.6737 1.8296 2.7337 3.1747 2.8606 1.4827 2.6897 2.1731 0.6832 1.8320 3.1224 -0.5074 1.2485 2.4034 -0.1935 -0.1568 1.9522 -1.3914 -0.7408 1.2469 -0.9400 -1.4959 0.0222 -2.0258 -2.4469 -0.4157 -1.8504 -2.7660 -1.8785 -2.8971 -3.7584 -2.3203 -2.8944 -3.8361 -3.8284 -4.3017 -3.8679 -4.3286
6.5568 5.1641 0.5438 -3.4607 -5.1281 -4.2972 -3.5552 -3.3149 -5.6792 5.9276 4.4277 1.6998 4.6229 3.8125 1.2594 3.9069 3.2344 2.4543 2.4561 3.0012 2.1138 1.8462 2.0600 3.1220 0.4391 1.7114 2.7071 0.0027 0.4517 3.4145 -1.2692 -0.0723 2.7960 -0.9439 -1.0693 1.7106 -2.0886 -1.1294 0.7313 -1.6341 -1.7753 -0.5531 -2.7532 -1.7160 -1.5625 -2.5696 -2.8013 -2.5925 -3.8775 -3.0485 -3.3053 -3.6063 -3.8080 -4.5627
6.5389 6.1734 1.6672 -3.2964 -1.9090 -4.4684 -4.0842 -3.9265 -5.1882 6.1167 4.7305 1.7823 4.6114 4.6437 1.8106 4.1937 3.2199 2.0803 2.6998 3.0922 1.9217 2.2816 1.6683 2.1899 0.7805 1.5593 2.0950 0.3753 0.1069 2.0678 -1.0953 0.0008 1.7498 -1.5178 -1.4471 1.7623 -2.8491 -1.5902 1.0652 -2.9086 -2.9029 0.3226 -2.5594 -2.6818 -1.1283 -3.3013 -3.6656 -1.9997 -2.5716 -3.8144 -3.3141 -3.4141 -3.2574 -4.4162
6.8773 5.7563 1.5547 -2.4371 -2.3682 -4.6330 -4.3263 -3.4623 -5.2943 5.9904 4.8456 2.3668 4.8010 4.4324 1.5378 3.7928 3.7169 2.4023 2.8741 2.9081 1.5216 1.8077 2.2393 2.3525 0.9242 1.4178 1.4472 -0.0231 0.5768 2.2655 -0.4767 -0.6014 1.4406 -1.6912 -1.2377 2.0704 -2.0256 -2.5217 1.3513 -2.9673 -2.2471 0.2034 -2.6643 -3.1988 -0.9262 -3.6810 -3.0386 -2.0292 -3.3222 -3.9684 -3.1641 -3.4525 -3.2492 -4.4674
7.3008 5.1719 2.3273 -5.1093 -5.2570 -3.4897 -5.3234 -2.9924 -3.6728 6.1813 4.4534 3.0371 4.9947 4.3344 2.1146 3.8247 3.7640 2.8743 2.8094 3.2148 1.9047 1.6905 2.5609 2.6754 0.6783 1.9910 1.7156 -0.1074 0.8983 2.3975 -1.2208 0.4339 1.4920 -0.8303 -0.8648 0.8310 -1.5077 -0.9792 -0.5121 -1.2266 -2.3399 -1.0991 -1.9118 -2.4777 -2.4355 -2.4481 -3.8810 -2.5819 -3.1591 -4.0289 -3.9058 -4.6352 -4.0018 -3.6726
6.5207 6.1005 1.5915 -4.6015 -4.4339 -4.2487 -2.4337 -4.1003 -4.8773 6.0438 4.8083 2.2062 4.7778 4.3590 1.5219 4.1853 3.1871 2.2652 2.8268 2.8768 1.6910 2.2085 1.7025 2.4069 0.8805 1.3945 1.7628 0.2477 0.1896 2.4107 -1.1377 0.0070 1.8433 -1.6222 -1.3982 2.1005 -2.7540 -1.7257 1.1565 -2.2009 -2.3029 -0.1233 -3.2617 -2.2871 -1.1956 -2.5975 -2.2579 -2.5497 -3.6298 -2.3991 -3.6419 -3.4522 -3.7203 -4.3201
6.7777 5.4074 1.1361 -3.7629 -5.4722 -3.3360 -4.8928 -4.5655 -5.0989 6.0067 4.8751 2.3178 4.8206 4.0801 1.8328 4.0166 3.5993 3.0148 3.1207 2.4639 2.5891 1.8975 2.4224 3.4717 1.1664 1.1187 3.2690 0.0332 1.3132 2.2918 -0.5590 -0.0264 1.9353 -1.3377 0.0864 0.6488 -1.6331 -1.2952 0.1228 -2.5837 -1.2080 -1.0445 -2.4524 -2.4543 -1.8824 -3.5249 -2.4824 -2.9430 -3.0689 -3.3623 -4.0826 -4.0238 -4.5002 -4.2427
7.1847 5.0293 1.5876 -3.8555 -5.7682 -4.0487 -5.2548 -4.1276 -4.7977 5.6853 5.1105 1.7257 5.1710 3.8767 2.4243 3.6638 3.8605 2.3709 3.1460 2.5700 2.9548 1.6377 2.5802 2.9445 1.1185 1.2546 3.4456 -0.2387 0.9722 2.8490 -0.0740 0.1855 1.5731 -1.4172 -0.2770 1.0685 -1.2436 -0.8299 -0.3226 -2.5341 -1.4328 -0.8155 -2.3008 -1.9981 -2.1934 -3.4035 -2.9565 -2.5628 -3.0859 -3.5673 -3.9064 -4.1987 -4.4820 -4.2967
7.2247 4.8913 2.6405 -5.5493 -5.0025 -3.6307 -5.1252 -2.7731 -3.8738 6.1290 3.8925 2.3669 4.7876 4.5120 2.6692 3.7463 3.4251 2.7506 2.3757 4.0356 2.9070 1.3479 2.9415 3.0629 0.8425 2.5143 1.7072 0.0562 1.2331 1.8330 -0.0067 0.5655 0.4833 -0.8174 -0.7031 0.5588 -0.6941 -1.4315 -0.7556 -1.6436 -2.6008 -0.7899 -1.8274 -3.0396 -2.2202 -2.8017 -4.1882 -2.2783 -3.3064 -4.3482 -3.6921 -4.7380 -3.9238 -3.7387
6.8312 6.0368 3.5601 -4.9963 -4.7297 -4.4593 -4.3021 -2.6343 -5.0386 6.0426 5.4546 2.4143 4.9238 4.5995 2.9527 4.2715 3.8476 1.8194 3.0075 3.1959 2.3175 2.3507 2.4145 1.2069 1.3516 1.4654 1.8173 0.5788 0.7378 0.7469 -0.1783 -0.3952 1.3940 -1.2029 -0.9530 0.4409 -1.7997 -2.2083 1.0304 -3.0540 -2.5845 0.2821 -2.7116 -3.4835 -0.8810 -3.7229 -3.2850 -1.9817 -3.1837 -3.8428 -3.2766 -4.2062 -3.6356 -4.3455
7.2404 5.6759 2.9762 -5.8342 -3.8232 -3.8921 -4.2240 -3.9124 -5.5074 5.8364 5.2909 3.3710 5.1619 4.5880 2.2199 3.7202 4.3058 2.5639 3.1682 3.2882 1.5977 1.9044 2.6788 2.1507 1.5951 1.4124 1.3927 0.2714 0.8517 1.8463 0.0403 -0.4788 1.1758 -1.3537 -0.9687 1.4801 -1.6080 -2.2686 0.7575 -2.1930 -1.9948 -0.6067 -2.4254 -3.2986 -1.3270 -3.0770 -3.0342 -2.6609 -3.6564 -4.3197 -3.2001 -4.5665 -3.9925 -4.3376
6.2842 6.0950 1.4111 -3.4912 -4.9978 -3.3362 -3.8188 -3.9656 -5.3450 5.9513 4.7529 2.0128 4.5748 4.3319 1.5654 4.1494 3.0959 2.3162 2.7874 2.6673 1.8329 2.3537 1.4268 2.5708 0.8771 1.2127 2.3601 0.5291 -0.2286 2.6384 -0.9564 -0.4352 2.4760 -1.2679 -0.7652 1.0379 -2.7267 -1.1211 0.8987 -3.1593 -0.9415 -0.5354 -2.9024 -2.2110 -1.3084 -3.3457 -2.0350 -2.7393 -2.4937 -2.9003 -3.6367 -3.3449 -3.9811 -4.2191
7.1656 4.9975 1.6804 -4.2149 -3.4385 -5.4439 -5.2438 -5.1295 -4.3073 5.6876 4.7811 1.4732 5.0730 4.2583 2.7470 3.5852 4.0961 2.5655 3.0483 3.1567 3.6181 1.6017 2.8330 3.3345 1.5251 1.7013 2.3410 0.1049 1.2156 2.2065 0.0479 0.2149 1.0808 -1.3211 -0.4101 1.0071 -1.2366 -1.6734 0.1892 -2.5106 -1.8686 -0.5922 -2.3709 -3.0958 -1.4566 -3.4434 -3.1007 -2.5150 -3.1673 -4.2109 -3.4999 -4.3307 -4.3271 -4.4284
6.7001 5.5610 1.3941 -3.6985 -2.2637 -4.9849 -1.5054 -2.6414 -4.4804 5.3386 5.1631 0.8827 4.6718 4.2445 1.8758 3.4536 3.6208 1.2431 2.8890 2.5601 2.1543 1.6825 1.9342 1.5013 1.0906 0.8883 2.4118 -0.1844 0.3616 1.8029 -0.7394 -0.7487 2.6599 -2.1135 -1.1310 2.1691 -2.0311 -2.3890 1.3399 -3.1667 -2.4099 0.3482 -2.8137 -3.2998 -0.8170 -3.6344 -2.8964 -2.0163 -3.2444 -3.7283 -3.2141 -2.6947 -2.8255 -4.2703
7.2283 5.4246 3.0758 -5.0712 -5.5126 -3.7095 -5.5263 -3.2909 -3.9694 6.3558 4.4969 2.2687 4.9394 4.5528 2.7846 4.1211 3.4875 2.1004 2.7455 3.4175 2.7135 2.0248 2.2114 2.1669 0.5676 2.2631 2.5527 -0.0428 0.8904 2.4121 -0.6374 0.7321 1.0345 -0.9490 -0.7208 0.7802 -1.2286 -0.9248 -0.6873 -1.6083 -2.3628 -0.9351 -2.2094 -2.4940 -2.3113 -2.7352 -3.8946 -2.5001 -3.2442 -4.0642 -3.9115 -4.7300 -4.2113 -3.8651
6.6565 5.8769 1.4571 -2.5246 -3.7380 -5.2313 -4.1045 -4.6636 -3.8689 6.0970 4.6505 2.1326 4.8120 4.2421 1.4583 4.1472 3.1495 2.2583 2.8081 2.8324 1.6450 2.1200 1.7375 2.4214 0.8178 1.4152 1.7338 0.1102 0.2835 2.4335 -1.2443 0.0951 1.7972 -1.7896 -1.2690 2.1389 -2.8806 -1.6399 1.1647 -2.2816 -2.3329 -0.0343 -3.2740 -2.3312 -1.1691 -2.5323 -2.2589 -2.4806 -3.5066 -2.3402 -3.6311 -3.4309 -3.7089 -4.2256
6.5709 5.5960 0.7791 -1.4568 -2.8901 -4.4163 -3.5123 -2.9560 -5.4058 5.3983 5.2388 1.6573 4.8301 3.9096 1.2281 3.5334 3.6582 1.9553 3.0728 2.2462 1.6956 1.7310 2.0274 2.3475 1.3191 0.5856 2.1891 -0.0885 0.4066 2.6997 -0.6502 -0.8992 2.1961 -2.1504 -0.7916 2.0786 -2.7060 -2.0555 1.4713 -3.3098 -1.7549 0.1214 -2.9938 -2.8819 -0.8298 -3.5675 -2.5827 -2.1923 -3.2329 -3.7144 -3.1347 -2.7874 -3.1420 -4.4403
6.5299 5.5437 0.9947 -2.4110 -4.3230 -4.5782 -4.5213 -4.0640 -5.4076 5.2475 5.4219 1.7786 5.3543 4.2695 2.7459 3.9885 3.9351 3.2909 3.6146 2.5270 2.8998 2.1127 2.3966 2.8727 1.7249 1.0938 2.2201 0.2268 1.0433 2.0535 -0.1835 -0.3208 1.5595 -1.5311 -0.2318 0.8881 -1.9857 -1.6120 0.4852 -2.8722 -1.5212 -0.7315 -3.3148 -2.9052 -1.1346 -4.0632 -2.8420 -2.4428 -4.1633 -4.2298 -3.0294 -3.7532 -4.1809 -4.4649
7.0888 5.6782 2.1501 -3.6540 -2.6993 -5.2247 -3.0349 -4.7620 -4.4711 5.6427 5.5207 2.5487 5.0418 4.3500 1.8131 3.6961 4.0095 2.4040 3.0234 2.9770 1.5363 1.9118 2.2958 2.2953 1.2174 1.3339 1.3652 0.2706 0.4409 2.1265 -0.2055 -0.6475 1.1974 -1.2685 -1.4850 1.8631 -1.7592 -2.5380 0.8985 -2.8849 -1.9813 0.0611 -3.3859 -3.0350 -0.8942 -3.6402 -2.4070 -2.2416 -4.4367 -3.3485 -3.1127 -3.6228 -3.7024 -4.3152
6.9717 4.7754 1.3548 -3.0840 -5.1913 -3.0487 -4.8215 -4.7606 -4.4637 5.4641 4.7991 1.3681 4.9468 3.6804 2.2372 3.4522 3.5664 2.0734 2.9442 2.3759 2.8469 1.4430 2.3041 2.7267 0.9228 1.1521 3.5507 -0.4634 0.7763 3.0892 -0.3799 -0.2749 2.0098 -1.4578 -0.0288 0.9842 -1.1592 -0.8243 -0.2608 -2.3819 -0.8697 -1.1425 -2.1060 -1.7619 -2.3256 -3.4032 -2.1902 -2.9656 -3.0996 -3.1098 -4.1244 -3.7882 -4.4181 -3.9095
5.9698 6.0233 0.7628 -2.1276 -4.8255 -3.6203 -2.6835 -3.3217 -5.2447 5.6191 5.0838 1.8891 4.6102 4.0692 1.4118 4.0453 3.3232 2.5949 3.2098 2.1626 2.1155 2.2816 1.7148 3.2185 1.5563 0.4580 2.8038 0.1876 0.8078 2.2734 -0.5914 -0.4528 1.9933 -1.7329 -0.1415 1.0584 -2.4294 -1.4187 0.6619 -3.2587 -1.1764 -0.5738 -3.6541 -2.4959 -1.1863 -3.9699 -2.2964 -2.6478 -4.1170 -3.6360 -3.3284 -2.9151 -3.8779 -4.1824
6.4039 6.0830 2.4242 -2.2986 -4.1396 -4.3755 -2.2819 -1.8584 -4.3777 5.8581 5.0305 1.4918 4.4531 4.6711 1.9045 4.0882 3.3147 1.3543 2.7194 2.9272 1.8544 2.3732 1.5346 1.3902 1.0830 1.1024 2.0410 0.5642 -0.1500 1.3804 -0.8389 -0.4211 1.8628 -1.3718 -1.6739 1.2150 -2.8802 -1.6552 1.2537 -3.4268 -2.8511 0.5158 -3.9546 -2.4264 -0.8327 -3.6769 -3.5166 -1.8366 -4.0318 -3.0510 -3.2282 -2.7815 -2.9202 -4.0374
6.5891 6.1136 1.4265 -3.0981 -2.0631 -4.2560 -2.4598 -4.1647 -4.8745 5.3311 5.6936 2.1446 5.0977 4.2179 1.9390 3.7421 3.8381 2.4811 3.4387 2.4059 2.1205 2.0201 2.0677 2.5061 1.6308 0.7605 1.8634 0.1401 0.5556 1.9618 -0.2296 -0.7152 1.2387 -1.7223 -0.9219 1.2861 -2.1667 -1.6045 0.0179 -3.3933 -2.4425 0.2829 -4.1458 -2.6701 -1.0050 -3.5133 -3.7963 -1.7887 -4.1318 -3.8595 -3.1645 -3.1292 -3.4151 -4.1798
6.0828 5.9958 1.2226 -3.3678 -4.5626 -5.3614 -5.4779 -4.4906 -4.4949 5.7747 5.4234 2.5834 5.3444 3.9850 2.4429 4.3129 3.6604 3.4953 3.6793 2.3248 3.1949 2.3123 2.5344 2.5924 1.5626 1.2266 2.5672 0.4446 1.3056 1.5585 -0.2234 -0.0408 1.4382 -1.3938 0.0586 0.4925 -2.1196 -1.2625 0.4461 -2.8404 -1.3965 -0.8715 -2.9844 -2.8553 -1.2252 -3.2802 -2.9874 -2.6979 -3.5612 -4.4321 -3.0334 -4.2650 -4.4869 -4.3497
6.8879 5.0421 1.4079 -4.5101 -5.0914 -2.5640 -4.2951 -5.2986 -4.8259 6.0636 4.5353 2.5641 4.7547 3.9893 2.0521 3.8594 3.6599 3.2196 2.4680 3.3622 2.7234 1.8082 2.3639 3.6433 0.5189 1.8737 3.0324 0.8054 0.8087 2.0011 -0.4891 0.1723 1.5670 -0.3088 -0.5284 0.2430 -1.6628 -0.9574 -0.2636 -1.5375 -1.6613 -1.5914 -2.9167 -1.8435 -2.1752 -2.8545 -2.6998 -3.4157 -4.2544 -3.1176 -3.8003 -4.3370 -4.6096 -3.8179
7.2316 5.9955 3.1349 -4.2788 -5.1809 -4.7068 -5.4889 -3.2483 -4.6035 5.8110 5.6232 3.4791 5.4381 4.3482 2.7661 3.9403 4.1697 2.7792 3.5820 2.9583 1.9566 2.0924 2.7239 1.9895 1.7979 1.4048 1.3220 0.3188 1.1139 1.3477 0.0401 -0.0253 0.4000 -1.3484 -0.5681 0.6215 -1.4103 -1.9771 0.0877 -2.8183 -2.3076 -0.3358 -2.8526 -3.7128 -0.8853 -3.9938 -3.8563 -1.8611 -3.5109 -3.5219 -3.2525 -4.5499 -3.9392 -4.2391
7.3544 4.5354 2.6318 -4.9929 -3.9173 -4.8035 -5.7176 -3.3387 -2.7179 5.9259 5.0032 2.7525 5.0109 3.8085 2.8504 3.5763 4.2593 2.7373 2.6630 3.0612 2.7942 1.3070 3.4312 2.2454 0.3965 2.2290 2.2723 0.5013 1.4778 0.9679 -0.3754 0.2534 1.0233 -0.1452 -0.5939 -0.2020 -1.0599 -1.7911 -0.1541 -1.0658 -2.4796 -1.4944 -2.1654 -3.5105 -1.5195 -2.5379 -3.8121 -2.9489 -3.7522 -4.7084 -2.9836 -4.9231 -3.9072 -3.4512
6.7796 5.6624 1.7052 -3.7113 -4.1359 -5.3234 -5.5626 -4.4972 -4.0391 5.3311 5.3770 2.0119 5.2219 4.0706 2.7565 3.7707 3.7579 3.0177 3.6170 2.2870 3.3192 2.1537 1.9275 3.4011 1.6181 1.6703 2.0146 0.2412 1.0634 2.0941 -0.3054 0.9085 0.6976 -1.4226 -0.1030 0.6928 -1.4669 -0.7837 -0.6515 -2.5975 -1.7796 -0.6813 -2.3692 -2.7583 -1.8050 -3.5940 -3.6196 -1.9783 -3.3536 -4.6336 -3.0701 -4.3502 -4.4139 -4.1620
6.2973 6.6670 3.3487 -4.4731 -2.5267 -4.4329 -5.0937 -4.7016 -4.7379 6.0871 5.1764 3.2532 4.9210 4.8879 2.3420 4.5359 3.4326 2.4433 3.2677 3.2026 1.6611 2.7480 1.8065 1.8984 1.3733 1.6916 1.2886 0.8402 0.2902 1.4480 -0.5937 0.2555 0.9796 -1.1023 -1.1640 0.9708 -2.4202 -1.2211 0.2363 -2.8733 -2.6531 0.0874 -2.4197 -3.1957 -1.2455 -3.5540 -3.9179 -1.9291 -3.1823 -4.1678 -3.3715 -4.3580 -3.8625 -4.2407
6.0982 6.1166 1.5961 -5.8002 -4.3311 -4.3542 -3.6513 -4.6017 -5.0723 5.7630 5.5019 2.9317 5.1724 4.1305 2.7237 4.0845 3.8892 3.7415 3.4544 2.5383 3.5117 2.3249 2.6659 2.5195 1.5767 1.3613 2.4412 0.7272 1.3328 1.1958 0.2235 -0.0718 0.9881 -0.8769 -0.0892 -0.0416 -1.3306 -1.5144 -0.2322 -2.4941 -1.5699 -1.1876 -2.6085 -2.9683 -1.7408 -4.0374 -3.2419 -2.1348 -4.1545 -4.6310 -2.7150 -4.4714 -4.5173 -4.1709
6.4588 5.6125 1.2882 -3.3586 -5.2375 -2.6362 -3.7539 -5.0954 -4.8792 6.0220 4.5208 2.2319 4.5359 4.2995 2.1024 4.0775 3.3483 3.1790 2.6005 3.0866 3.0326 2.2818 1.6988 3.5338 0.8715 1.3230 3.1519 0.8316 0.8526 1.7181 -0.4719 0.1436 1.4596 -0.6880 -0.0118 -0.0248 -1.7005 -1.1041 -0.2556 -2.1710 -1.0909 -1.6877 -3.3581 -2.0119 -1.8144 -3.6733 -2.2597 -3.2688 -4.6334 -3.4204 -3.3844 -3.8710 -4.6541 -3.7462
6.4432 5.8412 1.4736 -5.0968 -5.1485 -3.8270 -2.9903 -5.3656 -4.6775 5.0421 5.3258 1.6853 5.0666 4.1614 2.6435 3.6658 3.6352 2.8297 3.7152 2.2468 3.4196 2.3181 1.6914 3.5512 1.8861 1.0694 2.2460 0.4815 0.5373 2.3746 -0.2267 0.6832 1.0524 -1.3055 -0.3619 0.9282 -1.8780 -0.3065 -0.4647 -2.8616 -1.4308 -0.6588 -3.1074 -1.6197 -2.1336 -3.5229 -3.0435 -2.3974 -3.7595 -3.2278 -3.8764 -3.8701 -4.6876 -4.1689
6.4375 5.5949 1.5423 -3.9073 -5.5733 -4.7133 -5.7589 -4.2401 -4.6572 5.8271 5.4162 2.9094 5.3640 3.9909 3.0759 4.0440 3.9732 3.8070 3.3704 2.6362 3.6225 2.4852 2.6783 2.4021 1.4296 1.6077 2.5010 0.8474 1.3622 1.1327 -0.2649 0.3503 1.2282 -0.7818 0.0458 -0.1551 -1.5490 -1.2510 -0.1283 -2.1553 -1.5153 -1.4832 -3.0063 -2.7584 -1.4116 -3.3201 -3.2398 -2.8049 -4.3052 -4.3822 -2.7393 -4.7564 -4.6954 -4.1281
7.3323 5.7591 3.4595 -4.2107 -3.2202 -4.9497 -5.5862 -4.9755 -4.4679 5.9192 5.7758 2.9321 5.2815 4.4285 3.1587 3.9836 4.3401 2.3952 3.4235 2.9461 2.5268 2.1369 2.8305 1.7487 1.5498 1.4571 1.9590 0.3875 1.2461 1.0216 0.1378 -0.2320 0.8553 -1.2252 -0.4538 0.2489 -1.5420 -1.9285 0.2410 -2.2306 -2.2914 -1.0505 -2.7916 -3.6896 -0.9549 -3.1654 -4.1949 -2.3274 -4.5559 -3.7244 -2.6865 -4.8447 -4.0730 -4.1099
6.2434 5.1676 0.4064 -1.5644 -3.7351 -4.2551 -3.3240 -5.1839 -4.1340 4.9067 5.0375 1.0930 4.7796 3.6613 1.6969 3.3787 3.4583 2.2192 3.2124 2.0290 2.6724 1.8169 1.8152 3.2038 1.5111 0.3359 3.2347 0.0225 0.0999 3.1409 -0.4335 0.2904 1.7159 -1.6990 -0.4839 1.4534 -2.0651 -0.3188 -0.0000 -3.1420 -1.3018 -0.3791 -3.2724 -1.3344 -1.8808 -3.8350 -2.6647 -2.3129 -3.6682 -2.8200 -3.8051 -2.8677 -4.0526 -4.0694
6.9163 5.0559 2.1878 -5.8394 -3.9561 -2.5023 -5.4114 -4.4809 -4.6824 5.8544 5.1489 3.2546 4.9594 3.9391 3.1697 3.6020 4.2677 3.7417 2.6899 3.0702 3.6330 2.1578 2.9469 2.2253 1.1190 1.8581 2.1751 0.8130 1.5005 0.7425 0.0333 0.2113 0.7311 -0.4283 -0.1190 -0.6645 -1.3403 -1.3173 -0.5955 -1.3819 -2.0120 -1.9315 -2.2089 -3.2664 -1.8092 -2.7607 -3.6455 -3.1601 -3.7164 -4.8028 -2.9994 -5.0577 -4.3987 -3.5160
7.1939 5.0208 2.3576 -4.3771 -5.3816 -4.7526 -6.1680 -4.0482 -4.2819 5.9604 5.3679 3.1523 5.1377 4.1252 3.3789 3.6812 4.4997 3.5021 2.8313 3.2538 3.5171 2.4522 2.8784 2.1058 1.2266 2.0033 2.1302 1.1383 1.2160 0.8473 -0.1425 0.4226 0.8492 -0.1850 -0.5017 -0.3412 -1.4457 -1.3248 -0.2669 -1.5635 -2.2182 -1.4752 -2.8475 -3.0033 -1.3755 -3.3444 -3.3629 -2.7524 -4.4441 -4.3908 -2.6326 -5.1039 -4.5561 -3.9623
7.1430 5.4451 2.1016 -3.5309 -5.8584 -4.3508 -5.5597 -5.2215 -3.5231 5.6444 5.2764 2.0997 5.2625 4.1431 3.0182 3.7715 3.9245 2.9617 3.4367 2.5724 3.5413 1.9659 2.2897 3.3617 1.7740 1.2758 2.2613 0.3027 1.0058 2.0673 0.0514 0.6157 0.6329 -1.2635 -0.1143 0.5174 -1.4275 -0.6075 -0.8982 -2.7569 -1.3005 -1.0581 -2.8783 -1.8176 -2.4699 -3.6879 -3.0895 -2.4817 -3.8249 -3.5852 -3.9010 -4.4226 -4.9541 -3.8802
6.9120 5.5231 4.6359 -5.1651 -5.6115 -3.8988 -6.1128 -3.5444 -3.7049 6.3021 5.1974 3.2958 4.8918 4.7025 3.4929 4.3625 4.1361 2.1993 3.0328 3.4740 2.4560 2.5845 2.7256 1.2264 1.3568 1.9185 1.5630 0.9710 1.0549 0.3895 -0.3420 0.3753 0.6852 -0.4325 -0.9146 -0.0887 -1.7671 -1.5661 0.1754 -1.8747 -2.8462 -0.6143 -2.7422 -2.6261 -1.8288 -3.1340 -3.9610 -2.4095 -3.7155 -3.7749 -3.7903 -5.1276 -4.2625 -3.7840
7.2730 4.8631 3.0318 -5.5005 -5.5833 -3.4617 -4.7572 -3.9407 -4.8611 5.8979 5.1179 3.5964 4.8947 4.2552 2.8750 3.5365 4.3977 3.5165 2.4626 4.0251 2.5240 2.2258 2.5348 2.5549 1.1024 2.1848 1.6136 1.1671 0.7201 1.2608 0.2270 0.4467 0.1143 0.0426 -1.0396 -0.0577 -0.7300 -1.3009 -1.3262 -1.5293 -2.5711 -1.1838 -2.7331 -2.5115 -2.0898 -3.5909 -3.7325 -1.8707 -4.9502 -3.5240 -2.4944 -5.0383 -4.3417 -3.7419
6.5502 6.2293 3.0125 -4.5130 -4.7804 -1.9021 -4.0982 -5.7125 -3.9433 6.1998 4.7645 2.9350 4.7967 4.6078 2.4054 4.3539 3.1735 2.5507 2.9004 3.0564 2.1661 2.4417 1.6305 2.3380 0.9623 1.5392 2.0605 0.5251 0.0975 2.1341 -0.8499 -0.0505 1.5329 -0.7474 -0.7547 0.2032 -2.0468 -0.6101 -0.5471 -1.8396 -1.0082 -1.9867 -3.1517 -1.4463 -2.5853 -2.9402 -2.6834 -3.4230 -4.2772 -3.3197 -3.7178 -4.2662 -4.7329 -3.2330
6.9553 5.1740 4.4229 -4.9667 -5.1264 -4.2799 -6.3028 -3.5496 -3.3118 6.2377 4.7560 3.1644 4.8166 4.3739 3.4946 4.1689 3.7529 2.2830 2.7750 3.2946 2.6298 2.0854 2.8062 1.3814 0.6883 2.3476 1.7180 0.0489 1.7298 0.4996 0.2197 0.2312 0.5371 -0.4769 -0.3842 -0.6494 -0.2880 -1.8804 -0.6278 -0.9692 -2.4939 -1.8255 -2.2162 -3.2200 -1.3863 -3.1910 -3.2894 -2.5349 -4.2857 -4.2764 -2.2094 -5.2993 -4.2462 -3.3057
7.2203 5.0954 2.6112 -5.9707 -4.3946 -4.0594 -5.0778 -6.0231 -2.7330 5.7198 5.2435 2.5934 5.1224 4.4767 3.7473 3.6363 4.3195 3.5412 3.3345 2.9223 3.0589 1.8617 2.7960 2.7615 1.5630 1.3977 2.2826 0.4039 1.4281 1.3186 0.2945 0.0952 0.6220 -0.8498 0.1267 -0.3595 -0.8134 -1.1155 -1.2136 -2.1301 -1.2786 -1.9303 -2.1502 -2.6030 -2.6514 -3.5299 -3.2060 -2.5692 -3.6752 -4.2763 -3.6240 -4.9592 -5.0042 -3.3964
5.5954 5.0756 5.0839 -4.3440 -2.8427 -4.5158 -6.0323 -4.3537 -4.2475 5.7146 5.5996 3.6740 5.4299 4.4922 2.6900 3.9904 4.5622 2.2417 3.6850 3.3923 1.3414 2.2700 2.9209 1.5695 2.0903 1.5729 0.9180 0.6545 1.1235 1.0249 0.4653 -0.1086 0.1754 -0.8570 -0.7633 0.4868 -0.9460 -2.0730 -0.2568 -2.3677 -2.5763 -0.2502 -2.5061 -3.6942 -1.2531 -3.9376 -3.7961 -1.7190 -3.9850 -4.5944 -3.0002 -4.9196 -3.9370 -3.9629

>  <OB_ATOM_TYPES> (2ifbA1)
C.3 O.co2 O.co2 C.3 C.3 C.3 C.3 C.3 C.3 C.3 C.3 C.3 C.3 C.3 C.3 C.3 C.3 C.2

>  <ENSEMBLE_RMSD> (2ifbA1)
0.823 0.876 0.965 1.047 1.065 1.098 1.113 1.125 1.184 1.201 1.227 1.247 1.258 1.283 1.286 1.296 1.304 1.309 1.314 1.340 1.346 1.376 1.380 1.428 1.450 1.459 1.460 1.463 1.464 1.488 1.493 1.500 1.503 1.538 1.580 1.598 1.632 1.645 1.670 1.673 1.704 1.739 1.748 1.768 1.792 1.812 1.884 1.965 1.967 1.988

$$$$
