
 OpenBabel03071213D

 11 10  0  0  0  0  0  0  0  0999 V2000
   50.0110   59.0640  -34.0310 C   0  0  0  0  0
   52.4710   59.1760  -34.2810 C   0  0  0  0  0
   51.0250   61.0600  -34.9880 C   0  0  0  0  0
   49.9370   57.0160  -36.4030 O   0  0  0  0  0
   47.9990   56.5130  -37.7670 O   0  0  0  0  0
   50.3820   56.6260  -38.8160 O   0  0  0  0  0
   49.6390   59.4420  -36.8830 C   0  0  0  0  0
   50.9850   59.0180  -36.2820 C   0  0  0  0  0
   49.3050   58.6700  -38.0330 O   0  0  0  0  0
   51.1110   59.5510  -34.8670 N   0  0  0  0  0
   49.3730   57.0640  -37.8060 P   0  0  0  0  0
  1 10  1  0  0  0
  2 10  1  0  0  0
  3 10  1  0  0  0
  4 11  1  0  0  0
  5 11  1  0  0  0
  6 11  2  0  0  0
  7  8  1  0  0  0
  7  9  1  0  0  0
  8 10  1  0  0  0
  9 11  1  0  0  0
M  END
>  <MOLID> (2mcpB1)
2mcpB1

>  <SMILES_CANONICAL> (2mcpB1)
C[N](CCOP(=O)(O)O)(C)C	

>  <FINGERPRINT> (2mcpB1)
0000000000000000000000000000000000000000000000000000000000000000000000000000000000000000000000000000000000000000000001000000000000000000000000000000000010000100000000000000000000000000000000000000000000000000010000000000000000000000000000000000000000000000000000000000000000000000000000000000000000000000000000000000000000000000001000000000000000000000010000000000000000000000000000000000000000000000000000000000000000000000000000100000000000100000000000000000000000000000000000000000000000001000000001000000100000000000000011000000000010100000000000000000000000000000000000000000000000000000000000000000000000000000000000000010000000000010000000000000000000000000000000000000010000000000000010000000000000100010000000000000000000000000000000000000000000000000000000000000000000000000000000000000000000000000000000000000000000000000000000100000000000000000000000000000000000000001000000000000000000000000000000000000000000000000000000000000010000000000000000000000000000000000000000000000000000000000000000001000001000000000

>  <MACCS166> (2mcpB1)
000000000000000000000000000011000000000000100001000000000000000000000000010000000000110001101010000001000100101100110100010101000111000101111100011110001010111110010000

>  <OB_MW> (2mcpB1)
184.074

>  <OB_logP> (2mcpB1)
-0.1772

>  <OB_PSA> (2mcpB1)
79.81

>  <OB_MR> (2mcpB1)
42.1741

>  <OB_ATOMIC_CHARGES> (2mcpB1)
-0.0958621635 -0.0958621635 -0.0958621635 -0.1145347081 -0.1145347081 -0.2223870213 0.1316810244 -0.0400794876 -0.2725002126 0.3874148506 0.5325267532

>  <MCT_HBD> (2mcpB1)
2

>  <MCT_HBA> (2mcpB1)
5

>  <ENSEMBLE_TOTAL> (2mcpB1)
33

>  <ENSEMBLE_COORDS> (2mcpB1)
-0.1925 0.5913 2.3469 2.2675 0.7033 2.0969 0.8215 2.5873 1.3899 -0.2665 -1.4567 -0.0251 -2.2045 -1.9597 -1.3891 0.1785 -1.8467 -2.4381 -0.5645 0.9693 -0.5051 0.7815 0.5453 0.0959 -0.8985 0.1973 -1.6551 0.9075 1.0783 1.5109 -0.8305 -1.4087 -1.4281
-0.4482 0.5940 1.9047 1.9623 0.6234 1.5888 0.7892 2.6363 2.2422 -0.1401 -2.8364 -0.4058 -2.1738 -1.2689 -0.8892 -0.5984 -1.9628 -2.6838 -0.3286 0.9221 -0.8174 0.5959 1.8220 -0.0272 0.2933 -0.3335 -1.0332 0.7040 1.4037 1.4063 -0.6556 -1.5998 -1.2855
-0.4572 1.5046 2.2351 1.8741 1.1465 2.7652 1.2812 2.7256 1.0351 0.2259 -2.5540 -1.2397 -2.3539 -2.2799 -1.5476 -0.7361 -0.9926 -2.9239 0.1396 0.5791 -0.5336 1.0105 0.2946 0.6725 -0.9546 -0.3241 -0.5253 0.9150 1.4182 1.6554 -0.9445 -1.5181 -1.5931
0.3658 2.0836 2.9031 1.1288 -0.0049 1.9549 1.8865 2.1195 1.0249 0.3489 -2.2927 -0.5841 -1.9774 -2.4811 -1.7591 -0.0652 -1.3187 -2.8376 -0.1236 0.7818 -0.5990 -0.4634 1.4223 0.7299 -1.1417 -0.1554 -0.9099 0.7302 1.3959 1.6307 -0.6889 -1.5504 -1.5538
1.1237 -0.1647 1.8131 2.1977 1.9900 2.0226 -0.2137 1.8555 2.0993 -1.2998 -1.9641 0.1263 -2.3060 -0.9828 -2.0835 -0.4158 -2.5952 -2.1084 -0.2482 0.8799 -0.6207 1.0057 1.4773 -0.0186 0.1105 -0.2949 -1.3297 1.0094 1.2817 1.4647 -0.9635 -1.4827 -1.3649
0.4530 0.0484 1.9200 2.4197 1.1529 0.9894 0.8920 2.3723 2.4111 -1.9396 -2.1018 -0.0309 -1.5940 -1.9031 -2.6100 0.3293 -2.0430 -1.0406 0.2685 0.7633 -0.9417 0.1716 1.7752 0.1807 -0.9824 0.1045 -1.0534 0.9826 1.3238 1.3540 -1.0009 -1.4926 -1.1785
-0.6751 1.5797 2.2348 0.9304 -0.1766 1.7036 1.6786 2.0967 2.0582 1.0477 -1.9753 -1.1735 -1.3646 -1.8650 -0.1610 -0.9781 -2.0977 -2.6036 -0.7916 0.9501 -0.5361 0.4678 1.5675 0.0342 -0.4446 0.1247 -1.6345 0.5808 1.2584 1.4940 -0.4513 -1.4625 -1.4159
-0.2731 0.8336 2.4608 2.0900 1.2892 2.0527 0.4437 3.0412 1.7879 -0.4201 -3.0054 -1.0916 -2.1504 -1.0542 -0.8415 -1.1455 -1.6389 -3.0347 0.7317 -0.2263 -0.0697 0.5122 1.2542 0.1595 0.3601 -0.5214 -1.4066 0.6956 1.5823 1.6072 -0.8442 -1.5544 -1.6239
0.3076 1.5906 2.7183 2.5193 1.4417 1.7579 0.7354 2.4395 0.4705 -1.3355 -2.6661 -0.8153 -1.8412 -1.1612 -2.8905 0.4676 -1.4502 -2.0266 -0.7162 -0.1859 0.7157 0.7777 0.0164 0.8702 -1.0680 -0.0534 -0.6516 1.0616 1.3635 1.4506 -0.9084 -1.3348 -1.5993
0.1997 -0.0526 1.8484 1.8473 1.6121 2.4237 -0.2906 2.3157 1.5383 -0.5731 -2.8785 -0.6653 -2.0682 -0.7396 -0.5249 -1.2161 -1.6037 -2.6963 0.3350 0.8376 -0.9428 1.3764 1.2249 0.0859 0.4751 -0.5485 -1.2124 0.7689 1.2689 1.4524 -0.8544 -1.4362 -1.3070
0.3473 1.9341 2.5387 1.3899 -0.0409 1.5588 2.1291 2.1655 0.9160 -0.6794 -2.5490 -0.2135 -1.4080 -2.0465 -2.6712 0.6686 -1.0854 -1.7104 -1.1540 0.4162 0.3752 -0.0479 1.4307 0.1703 -1.4887 -0.1388 -0.8872 0.9340 1.3566 1.2952 -0.6909 -1.4424 -1.3719
0.4613 2.1897 2.8045 0.7431 -0.0825 2.0225 1.9981 1.7422 0.9897 0.5435 -2.1504 -0.6308 -1.8631 -2.5534 -1.5594 -0.1700 -1.2735 -2.8480 -0.1730 0.8760 -0.6696 -0.4492 1.5728 0.6463 -1.1396 -0.1466 -0.8456 0.6901 1.3464 1.5947 -0.6412 -1.5207 -1.5041
1.2898 1.1212 3.0880 2.1380 1.4963 0.8559 0.1882 2.7239 1.6537 -1.4715 -2.3876 -0.4873 -1.9424 -0.8771 -2.5764 0.0005 -2.4214 -2.4882 -0.4554 0.5655 -0.2079 0.0101 0.3044 1.2092 0.1453 -0.3985 -1.0578 0.8967 1.4118 1.6789 -0.7993 -1.5384 -1.6682
1.3716 0.8841 3.0032 1.9859 2.1916 1.0712 -0.3551 1.9773 1.7110 -1.6488 -2.1201 -0.2453 -2.1970 -1.2713 -2.6523 0.0697 -2.0839 -2.0441 0.7001 0.3526 -0.6605 0.8135 0.0203 0.8138 -0.6302 0.1321 -1.0984 0.9531 1.2682 1.6241 -1.0628 -1.3508 -1.5227
0.6417 0.8392 2.7410 2.1784 1.1045 0.8683 1.0693 3.0296 1.8191 -1.8281 -2.4892 -0.7420 -1.5104 -0.7639 -2.6864 0.1730 -2.5289 -2.2139 -0.7012 0.0358 0.4019 -0.2169 1.4677 0.4909 0.0469 -0.6525 -0.5866 0.9044 1.5872 1.4758 -0.7570 -1.6295 -1.5682
0.5552 2.2425 2.6966 0.2199 -0.0693 2.0778 2.0254 1.2259 1.0725 0.8080 -1.8936 -0.7891 -1.6876 -2.5881 -1.1294 -0.4235 -1.3734 -2.8883 -0.1122 0.9754 -0.7819 -0.3380 1.7363 0.5075 -1.0763 -0.0599 -0.8745 0.6158 1.2743 1.5641 -0.5868 -1.4701 -1.4554
1.5090 0.7742 2.9379 1.5208 2.5488 1.2950 -0.5831 1.5287 1.9930 -1.0542 -2.2113 -0.2198 -2.2604 -0.5853 -1.8814 -0.7225 -2.3675 -2.6761 0.2884 0.6492 -0.6240 1.0230 0.2331 0.6333 0.3407 -0.4272 -1.5462 0.8565 1.2736 1.6930 -0.9183 -1.4163 -1.6048
0.9114 2.1723 2.8604 2.1116 0.7322 1.3326 0.6051 2.4458 0.4845 -0.9233 -2.9533 -1.1465 -1.9821 -0.8213 -2.2405 0.3457 -1.5315 -2.7354 -0.9345 0.1428 0.3424 -0.2860 0.4308 1.6812 -0.0347 -0.5875 -0.4738 0.8176 1.4371 1.5653 -0.6308 -1.4674 -1.6702
0.1971 1.5507 3.0214 1.9975 1.7065 1.4229 -0.2871 2.2108 0.7452 -0.4591 -2.7309 -1.1775 -2.1802 -0.7627 -1.0452 -0.8323 -1.1853 -3.0844 1.0862 -0.5506 0.0444 0.3002 -0.1092 1.2637 0.3804 -0.2280 -1.1419 0.5645 1.3262 1.5923 -0.7673 -1.2276 -1.6410
-0.3187 2.1644 2.2821 1.6252 0.6924 2.3414 1.7205 2.7925 1.1464 -0.2190 -3.0097 -2.1693 -2.3360 -1.6462 -1.4752 -0.3752 -0.5640 -2.5634 -0.5246 -0.1711 0.5280 0.3925 0.9966 0.2293 -0.0637 -1.2994 -0.1989 0.8396 1.6419 1.5002 -0.7407 -1.5974 -1.6204
1.5084 0.5783 2.7589 0.9779 2.5921 1.5290 -0.6943 0.8356 1.7997 -0.5604 -2.1567 -0.1357 -2.2444 -0.5156 -1.2917 -0.9519 -2.1969 -2.5871 0.4451 0.8541 -0.8446 1.2796 0.4537 0.3541 0.3391 -0.2629 -1.7128 0.7567 1.1175 1.5879 -0.8558 -1.2993 -1.4576
1.0380 1.8498 2.9784 1.9230 0.4385 1.2267 1.1232 2.6855 0.7122 -1.2006 -3.1066 -1.4149 -1.5104 -0.8853 -2.7561 0.6948 -1.5504 -1.8095 -0.7019 0.5646 -0.1080 -0.4900 0.9280 1.3460 -1.0406 -0.8113 -0.1749 0.8906 1.4683 1.5439 -0.7262 -1.5812 -1.5438
-0.6113 1.9582 2.2162 1.0286 0.1540 2.1237 1.7496 2.4613 2.0896 0.2919 -2.6429 -2.4148 -1.0840 -2.3642 -0.2109 -1.8152 -1.3297 -2.3546 -0.4319 0.6369 -0.3842 0.6504 1.5600 0.1336 0.1743 -0.3064 -1.2529 0.6883 1.5199 1.6281 -0.6406 -1.6470 -1.5738
-0.2686 1.5888 2.5375 2.1027 1.9957 2.3107 0.6525 2.3333 0.4046 -0.8647 -2.9147 -2.1564 -2.3265 -0.9929 -1.1526 -0.6371 -0.5658 -2.9245 -0.0903 -0.5320 0.5796 1.1504 0.0611 1.2118 0.2731 -1.0890 -0.6724 0.8928 1.4810 1.6066 -0.8843 -1.3655 -1.7449
0.6880 -0.0363 1.9590 2.1488 1.8787 2.1449 -0.1847 2.2117 1.6169 -0.7445 -3.0040 -0.9258 -1.6655 -1.3156 -2.6911 -2.0285 -0.9898 -0.2498 0.1918 0.7849 -0.8884 1.3690 1.2298 -0.0454 0.2977 -0.6138 -1.1045 0.9868 1.3136 1.3991 -1.0589 -1.4591 -1.2149
-0.0112 0.8512 2.6552 1.7375 2.3939 2.0188 -0.1292 2.0375 0.5271 -1.0512 -2.7987 -1.3982 -2.1442 -0.4743 -0.8853 -0.9677 -0.9243 -3.0273 0.6602 -0.8275 0.3859 1.5762 0.2860 0.8468 0.4703 -0.6994 -1.0140 0.7822 1.3711 1.5029 -0.9228 -1.2156 -1.6118
0.4606 0.7713 2.8345 1.7584 2.5327 1.8066 -0.4021 1.9616 0.8851 -1.4373 -2.6732 -1.0239 -2.0124 -0.1303 -1.2639 -0.8641 -1.3849 -3.0700 0.6171 -0.7534 0.3548 1.5150 0.4332 0.6277 0.4926 -0.8888 -1.0511 0.8230 1.4033 1.5309 -0.9508 -1.2716 -1.6308
1.7806 2.4228 1.8986 -0.1700 1.2263 2.6809 1.5768 0.0563 1.4461 0.4194 -2.2410 -0.6687 -2.1308 -1.9554 -1.1936 -0.4011 -1.7874 -2.9692 -0.8636 0.6199 -0.0908 0.1423 1.6880 0.2782 -0.5176 0.1094 -1.3673 0.8158 1.3343 1.5656 -0.6518 -1.4730 -1.5798
1.2154 2.7131 1.0370 1.2082 1.2596 2.9716 1.9002 0.3862 0.8244 0.1155 -2.5483 -0.7440 -2.0063 -2.2074 -2.2455 0.0031 -0.7611 -2.4781 -0.7256 0.7922 -0.2137 -0.4687 0.9419 1.2691 -1.4033 -0.4370 -0.4259 0.9561 1.3228 1.5041 -0.7945 -1.4620 -1.4990
1.0245 2.6110 2.1870 1.8579 0.3784 1.8130 1.1664 1.7628 -0.0647 -0.7098 -2.8360 -1.0633 -1.5970 -1.1592 -2.8611 0.6432 -0.8927 -1.8283 -0.6865 -0.4802 0.8976 -0.5429 0.9086 1.4804 -1.3127 -0.3793 -0.3728 0.8673 1.3901 1.3459 -0.7103 -1.3035 -1.5336
1.4643 0.9262 3.0217 2.2286 1.2012 0.7454 0.4742 2.6402 1.6454 -2.4828 -1.1478 -1.7297 -0.3405 -1.8691 -3.0389 -0.6574 -2.4493 -0.6476 -0.6776 0.6690 -0.0646 0.0185 0.2362 1.2103 -0.1529 -0.0601 -1.1623 1.0304 1.2547 1.6333 -0.9048 -1.4014 -1.6129
-0.5925 0.8644 1.9802 1.8269 0.9438 2.3085 0.6307 2.9184 1.6010 -1.0241 -2.4055 -2.6519 -1.3129 -2.0757 -0.0769 -1.8468 -0.2654 -1.6974 1.0894 -0.3898 -0.1260 0.8903 1.1022 0.0281 0.5706 -0.7773 -1.3874 0.6918 1.4340 1.4730 -0.9234 -1.3491 -1.4512
0.4569 1.4971 3.1104 2.0419 2.0230 1.3626 -0.3558 2.1334 0.9241 -1.5262 -2.8002 -1.8386 -2.0184 -0.3479 -1.0831 -0.4211 -0.8581 -2.9244 0.9397 -0.2128 -0.2128 0.7249 -0.0569 1.2776 0.3312 -1.4287 -0.6161 0.7198 1.3918 1.6456 -0.8928 -1.3407 -1.6452

>  <OB_ATOM_TYPES> (2mcpB1)
C.3 C.3 C.3 O.3 O.3 O.2 C.3 C.3 O.3 N.4 P.3

>  <ENSEMBLE_RMSD> (2mcpB1)
0.000 0.904 0.943 1.062 1.074 1.125 1.129 1.136 1.153 1.154 1.168 1.171 1.184 1.212 1.278 1.317 1.321 1.345 1.381 1.388 1.399 1.411 1.442 1.476 1.486 1.496 1.510 1.527 1.540 1.564 1.571 1.576 1.592

$$$$
