
 OpenBabel03071213D

 20 20  0  0  0  0  0  0  0  0999 V2000
   42.3930   49.9380   53.4740 C   0  0  0  0  0
   47.8820   50.3710   51.0250 O   0  0  0  0  0
   46.5260   49.3690   48.6880 O   0  0  0  0  0
   40.2990   50.8100   49.5070 O   0  0  0  0  0
   45.0550   52.3880   50.2550 O   0  0  0  0  0
   44.2840   51.8270   45.2450 O   0  0  0  0  0
   43.3710   51.8420   52.3360 O   0  0  0  0  0
   42.2370   52.2040   44.9500 O   0  0  0  0  0
   47.7450   51.1770   49.8680 C   0  0  0  0  0
   42.5120   50.2100   51.0570 N   0  0  0  0  0
   44.0580   51.4470   47.8980 O   0  0  0  0  0
   41.6990   51.1110   47.5000 C   0  0  0  0  0
   46.4760   50.7660   49.0570 C   0  0  0  0  0
   41.5320   50.4770   48.8760 C   0  0  0  0  0
   45.2100   51.0200   49.9070 C   0  0  0  0  0
   42.6710   50.9260   49.8030 C   0  0  0  0  0
   44.0010   50.6440   49.0790 C   0  0  0  0  0
   42.7660   50.7610   52.2420 C   0  0  0  0  0
   43.1440   51.8930   45.7220 C   0  0  0  0  0
   42.9540   51.5700   47.0740 C   0  0  0  0  0
  1 18  1  0  0  0
  2  9  1  0  0  0
  3 13  1  0  0  0
  4 14  1  0  0  0
  5 15  1  0  0  0
  6 19  1  0  0  0
  7 18  2  0  0  0
  8 19  2  0  0  0
  9 13  1  0  0  0
 10 16  1  0  0  0
 10 18  1  0  0  0
 11 17  1  0  0  0
 11 20  1  0  0  0
 12 14  1  0  0  0
 12 20  2  0  0  0
 13 15  1  0  0  0
 14 16  1  0  0  0
 15 17  1  0  0  0
 16 17  1  0  0  0
 19 20  1  0  0  0
M  END
>  <MOLID> (2simA1)
2simA1

>  <SMILES_CANONICAL> (2simA1)
OC[C@H]([C@H]([C@@H]1OC(=C[C@@H]([C@H]1NC(=O)C)O)C(=O)O)O)O	

>  <FINGERPRINT> (2simA1)
0000000010000000000000000000000010001001000001000101001000000000000000000001000000000000000000011000000000000001000001010000000110000000001110000000000011000001000000000000000000000000000000000000000000001000000000011000000000111000001000000001010000000000000000010000000000000000000000000000000100010000000000001100100000000000001000000000000001000000010000000000000111000000000000001000000000000010100000000000001000000011100000000000000000000000000000100000000000010100000010000011100100001011100100000000100000110100000000000000000000000100100000000000000000000000010000000101000111000001011000000001100000000000000000001110001000000001000000000000000000000000001000000001000000010100000011101010000000010111000000001000000010000000000010000001000000000000000111000000000000000010000101000000000110000000100000000001010000000000000000001100000001000000000000001001000000000000000000010010000100000000000000000100001001000000000000000000010000000100000000010010110000000110101000000000000000000000001000000100101100000001

>  <MACCS166> (2simA1)
000000000000000000000000000000000000000000000000000011001000000000000001000100000100000011010010111000010001110000001001001000100011100111111110010011111111111110111000

>  <OB_MW> (2simA1)
291.095

>  <OB_logP> (2simA1)
-2.6757

>  <OB_PSA> (2simA1)
156.55

>  <OB_MR> (2simA1)
62.9087

>  <OB_ATOMIC_CHARGES> (2simA1)
0.0964260038 -0.2174865591 -0.2174439188 -0.2162012153 -0.216361345 -0.2371373314 -0.2733273699 -0.2371373314 0.2175299812 -0.2003751062 -0.4684024936 0.0517576396 0.2185381098 0.2006636815 0.2261241163 0.1722232936 0.2214770891 0.242015748 0.4208143567 0.216302651

>  <MCT_HBD> (2simA1)
6

>  <MCT_HBA> (2simA1)
9

>  <ENSEMBLE_TOTAL> (2simA1)
50

>  <ENSEMBLE_COORDS> (2simA1)
-1.2065 -1.1012 4.1800 4.5190 0.6321 0.4757 2.3430 -2.1798 0.2309 -3.4179 -0.4826 0.2780 1.7749 1.3266 0.9805 0.4833 0.7524 -3.9089 -1.8049 0.8985 3.0178 -1.6645 1.5343 -4.0366 3.9097 -0.5660 0.9304 -1.1292 -0.9925 1.8252 0.1853 0.3185 -1.2377 -2.0739 0.2328 -1.5296 2.6120 -0.7829 0.1789 -2.1758 -0.2373 -0.2282 1.4530 -0.0520 0.8350 -1.0370 -0.4265 0.5458 0.2150 -0.0960 0.0110 -1.4143 -0.2614 2.9592 -0.7608 0.9828 -3.4380 -0.8104 0.5001 -2.0694
-0.7503 -0.7637 4.2080 3.4747 -1.1257 2.6168 2.9523 -1.1163 -0.8967 -3.1548 -0.7791 0.4464 2.3205 1.4927 0.0124 0.0813 1.3721 -3.9662 -2.2341 0.6282 2.9602 -2.1344 0.8422 -4.1793 3.7766 -0.7217 1.2917 -0.7009 -0.7490 1.8514 0.1307 0.5023 -1.3910 -2.0966 0.0905 -1.4707 2.5379 -0.8817 0.4394 -2.0195 -0.3111 -0.1457 1.6586 0.3511 0.5314 -0.8112 -0.2583 0.5415 0.3374 0.1896 -0.1291 -1.3170 -0.1846 2.9501 -1.1086 0.9080 -3.5292 -0.9427 0.5145 -2.1414
-1.9709 1.0171 2.8598 4.5738 0.6208 0.9780 2.4978 -1.7376 -0.6822 -3.3842 -0.6173 0.3482 1.7017 1.1606 1.3631 0.4459 0.7962 -3.8549 -1.2708 -0.8494 4.1602 -1.7817 1.2769 -4.0617 3.9624 -0.6471 0.8030 -1.0727 -1.0185 1.8801 0.1571 0.3200 -1.1948 -2.0896 0.1585 -1.4686 2.7151 -0.4872 -0.0400 -2.1588 -0.3077 -0.1645 1.5098 -0.1434 0.8238 -1.0047 -0.4506 0.5999 0.2384 -0.0941 0.0510 -1.3974 -0.3563 3.0407 -0.8275 0.8885 -3.4156 -0.8437 0.4707 -2.0254
-0.6765 -1.3504 3.9066 3.1730 0.5056 2.7246 2.4740 -2.2909 0.7115 -3.0881 -0.2715 0.5897 2.2771 1.1882 -0.0868 -0.1167 1.2086 -4.2721 -1.2639 0.7618 2.9590 -2.3904 1.3679 -4.0801 3.5267 -0.4246 1.7123 -0.5487 -0.9856 1.5813 0.1167 0.3060 -1.7065 -2.1342 0.3986 -1.4588 2.2566 -0.9343 1.0694 -1.9705 -0.0979 -0.1729 1.8530 -0.1665 -0.1753 -0.7041 -0.3835 0.3255 0.3995 -0.1358 -0.4937 -0.8662 -0.3831 2.7805 -1.2958 1.0936 -3.6251 -1.0214 0.5937 -2.2891
-1.5644 -1.3025 4.0740 4.6345 -0.1950 -0.3220 2.1705 -1.8441 1.5894 -3.2383 -0.6549 0.3723 2.2261 1.4766 0.2219 0.3568 1.3171 -3.8493 -2.2368 0.7105 2.9794 -1.8981 1.0784 -4.1528 3.9854 -0.5251 0.8954 -0.8376 -0.8103 1.8857 0.1988 0.4607 -1.2870 -2.0376 0.1569 -1.4862 2.5453 -0.8921 0.5987 -2.0447 -0.2749 -0.1671 1.6075 0.2975 0.7205 -0.8683 -0.3021 0.5778 0.3313 0.1122 -0.0245 -1.6014 -0.3360 2.9319 -0.8968 0.9912 -3.4679 -0.8322 0.5360 -2.0901
-2.0538 -0.8195 4.1971 5.1604 -0.3947 0.1228 2.8469 -1.1987 -0.8469 -3.4047 -0.2383 0.4050 1.6093 -1.3219 1.6268 0.3333 1.5202 -3.6668 -2.1805 1.2385 2.9909 -1.4835 0.2567 -4.2594 4.0267 0.1233 0.7977 -1.1303 -0.6185 2.0365 0.2051 0.3043 -1.1426 -2.0350 0.2881 -1.4374 2.7680 -0.0359 -0.0341 -2.1508 -0.0483 -0.0970 1.5502 -0.1171 0.8769 -1.0183 -0.1916 0.7032 0.2596 -0.0027 0.1373 -1.8081 0.0717 3.0201 -0.7272 0.7216 -3.4275 -0.7674 0.4628 -2.0024
-1.9437 -0.9562 4.1569 3.6842 1.2965 1.2587 3.1197 -1.4957 -0.9750 -3.3244 0.0766 0.5480 1.6018 -1.9381 1.1603 0.5022 0.7322 -3.8730 -1.6474 1.1775 3.1236 -1.7145 1.2668 -4.0578 3.9921 0.1139 0.5386 -1.0374 -0.7704 1.9872 0.2139 0.1145 -1.2317 -2.0053 0.4791 -1.3637 2.7743 -0.3380 -0.2310 -2.0920 0.0848 -0.0359 1.5897 -0.6039 0.6844 -0.9514 -0.2903 0.6705 0.2979 -0.2745 0.0225 -1.5363 -0.0402 3.0459 -0.7589 0.8778 -3.4134 -0.7645 0.4875 -2.0153
-1.1956 1.0308 3.0180 4.6870 -0.4248 -0.1146 2.3139 -1.8709 1.2344 -3.4658 -0.8605 0.0236 1.5909 1.6035 0.9909 0.5080 1.0010 -3.8488 -0.7876 -1.1032 3.9970 -1.7356 1.3258 -4.1699 3.7547 -0.0342 0.8799 -1.3072 -1.0392 1.7613 0.0785 0.4858 -1.1853 -2.0951 0.0514 -1.6680 2.4128 -0.6378 0.5321 -2.2349 -0.4273 -0.3737 1.2488 0.2270 0.9655 -1.1528 -0.4448 0.4994 0.0796 0.0644 0.0627 -1.0566 -0.4612 2.9834 -0.7907 0.9894 -3.4812 -0.8523 0.5248 -2.1068
-1.9193 -0.9031 4.2373 4.7987 0.7619 -0.4389 3.1689 -1.7242 -0.2856 -3.4150 -0.0327 0.4099 1.5333 -1.4531 1.7560 0.5442 0.4516 -3.8650 -2.2808 1.0965 2.9859 -1.5110 1.4465 -4.0118 3.8992 0.3695 0.5847 -1.1898 -0.7210 2.0043 0.2234 0.1736 -1.1422 -2.0049 0.3981 -1.4248 2.7525 -0.3895 -0.0403 -2.1497 0.0416 -0.0935 1.5384 -0.3477 0.8719 -1.0351 -0.2484 0.6913 0.2584 -0.1761 0.1268 -1.8256 -0.0400 3.0200 -0.6575 0.8412 -3.3914 -0.7284 0.4554 -1.9947
-1.5260 -0.8825 4.2362 4.8385 -0.6418 0.2479 2.5824 1.2439 -0.3164 -3.6606 -0.0225 0.1107 1.2588 -1.5726 1.5672 0.7243 0.7041 -3.7421 -0.4037 0.9393 3.1789 -1.4710 0.6383 -4.3839 3.7379 -0.2762 1.0653 -1.6294 -0.5939 1.9027 0.0738 0.0796 -1.1740 -2.1146 0.2862 -1.6441 2.5268 -0.0886 0.1790 -2.3602 0.0247 -0.3022 1.2362 -0.2883 0.9614 -1.3130 -0.2035 0.5912 0.0138 -0.1634 0.1176 -1.1129 -0.0524 3.0609 -0.6029 0.5654 -3.5352 -0.7982 0.3043 -2.1211
-0.1208 -1.2343 3.8692 2.9639 -0.1070 3.0426 2.6054 -1.6490 -0.2036 -3.2758 -0.9147 0.2014 2.3746 1.1985 -0.2501 -2.0922 0.5340 -4.2935 -0.6747 0.9383 3.0409 -0.1940 1.7852 -4.0786 3.3906 -0.6322 1.7957 -0.9187 -0.9353 1.6676 0.0161 0.5954 -1.4402 -2.1902 0.0941 -1.6343 2.1837 -0.9049 0.9261 -2.1380 -0.3858 -0.3343 1.4991 0.3803 0.5056 -0.9519 -0.3465 0.3940 0.2036 0.1953 -0.1986 -0.5966 -0.2661 2.8300 -1.0543 1.0601 -3.6097 -1.0297 0.5945 -2.2302
-2.2842 -0.8264 4.1142 5.1099 -0.7462 0.0015 2.8251 0.8906 -0.8532 -3.4187 -0.1397 0.4454 1.5831 -1.3354 1.7392 0.5934 0.5259 -3.8108 -1.9176 1.2882 3.0655 -1.6388 0.8976 -4.1574 4.0455 -0.2627 0.8055 -1.1583 -0.6675 2.0469 0.1847 0.1047 -1.1540 -2.0438 0.2333 -1.4336 2.7751 -0.2603 -0.0196 -2.1631 -0.0561 -0.0812 1.5453 -0.2043 0.8798 -1.0318 -0.2607 0.7093 0.2528 -0.1581 0.1329 -1.7818 0.0714 3.0279 -0.7030 0.6031 -3.4383 -0.7737 0.3025 -2.0199
-1.2532 -1.3007 4.1943 3.2224 -0.0876 -1.3384 2.5609 -1.4474 1.9059 -3.3903 -0.8255 -0.0266 1.6258 1.7616 1.0010 0.8842 1.0817 -3.5936 -0.6095 0.8051 3.2812 -1.3125 1.1167 -4.2347 2.7322 -1.0700 -0.4394 -1.3501 -0.9126 1.8708 0.2161 0.4912 -1.0541 -1.9121 0.0185 -1.6631 2.5382 -0.4345 0.9159 -2.1353 -0.3983 -0.3535 1.2827 0.3870 1.1005 -1.1167 -0.3681 0.5976 0.1318 0.1218 0.2053 -1.0268 -0.3289 3.0786 -0.4434 0.9118 -3.4094 -0.6443 0.4782 -2.0382
-1.7958 1.0832 2.8350 4.6166 0.6173 0.8416 2.4848 -1.7759 -0.5986 -3.4000 -0.6638 0.2950 1.6743 1.1221 1.4482 -1.8877 1.1275 -3.9848 -1.2698 -0.8353 4.1429 0.3924 0.9826 -3.9466 3.9348 -0.6264 0.8559 -1.1098 -1.0334 1.8600 0.1645 0.3567 -1.1793 -2.0927 0.1487 -1.4925 2.6873 -0.5059 0.0084 -2.1724 -0.3340 -0.1980 1.4762 -0.1587 0.8601 -1.0262 -0.4658 0.5809 0.2219 -0.0811 0.0612 -1.3594 -0.3394 3.0217 -0.6949 0.8837 -3.4039 -0.8439 0.4978 -2.0072
-0.8037 1.3405 2.9710 4.2943 -1.2022 1.3425 2.6195 1.0891 -0.7643 -3.5881 -0.3764 0.1651 1.3805 -1.3603 1.6235 0.5431 0.5115 -3.9080 -0.9171 -0.7465 4.1152 -1.6637 0.9939 -4.2727 3.8240 0.0860 0.9816 -1.4704 -0.7247 1.8898 0.0628 0.1793 -1.2125 -2.1399 0.1480 -1.6211 2.6246 -0.0623 0.0693 -2.3154 -0.1684 -0.2821 1.3365 -0.1468 0.8819 -1.2224 -0.2974 0.5749 0.0855 -0.1115 0.0707 -1.0504 -0.1344 3.0569 -0.7502 0.6495 -3.5468 -0.8496 0.3333 -2.1350
-0.8045 -1.4951 3.9433 3.3017 1.1949 2.3790 2.9912 0.1574 -0.6795 -3.4216 0.7617 0.4230 1.6698 -2.1350 -0.1241 0.3031 0.0606 -4.0690 0.1556 0.5406 3.1425 -1.5932 1.3290 -4.2453 3.2419 -0.0389 1.6805 -1.4706 -0.5643 1.8830 0.0053 -0.1463 -1.3787 -2.0815 0.7194 -1.5195 2.2711 0.1212 0.5397 -2.2363 0.4327 -0.1683 1.2176 -0.9730 0.5486 -1.2167 -0.1746 0.5588 -0.0167 -0.4587 -0.0998 -0.6221 -0.3868 2.9539 -0.8077 0.6652 -3.5958 -0.8865 0.3900 -2.1722
-1.1096 -0.8724 4.2421 3.1954 -1.7514 -0.5892 3.1601 1.5911 0.6855 -3.5141 -0.5623 0.0614 1.4538 -1.0582 1.8335 0.7224 0.3713 -3.8392 -0.8869 1.2519 3.1718 -1.4457 0.9748 -4.2608 3.6117 -0.7068 0.2771 -1.4841 -0.6405 1.9324 0.1618 0.2981 -1.1139 -2.0067 0.0467 -1.6462 2.5688 0.3853 0.2343 -2.2394 -0.2468 -0.3106 1.3163 0.1163 1.0520 -1.1993 -0.2442 0.6157 0.1107 0.0398 0.1781 -1.1409 0.0582 3.0707 -0.5649 0.6058 -3.5068 -0.7094 0.3433 -2.0880
-1.6565 -0.8111 4.2581 4.2838 0.2323 1.5510 2.8963 0.8386 -0.8774 -3.3716 -0.1084 0.4694 1.5797 -1.7285 1.3480 -1.8019 0.4433 -4.1381 -1.9196 1.1882 2.9790 0.3289 1.2466 -3.9198 4.1011 -0.6881 0.4861 -1.0751 -0.7464 1.9732 0.1949 0.0906 -1.2545 -2.0517 0.3357 -1.4321 2.7908 -0.4185 -0.2275 -2.1324 -0.0276 -0.0958 1.5892 -0.4559 0.7108 -0.9808 -0.3054 0.6425 0.2843 -0.2409 0.0171 -1.5707 0.0138 3.0126 -0.6869 0.7654 -3.4493 -0.8019 0.3764 -2.0534
-0.7793 -0.9613 4.2149 3.0031 -0.4018 2.7569 2.8768 0.9623 -0.5767 -3.1649 0.2894 0.7083 2.2801 -1.6980 -0.7968 0.0189 0.2084 -4.2111 -1.5884 0.9575 3.0548 -1.7464 1.6409 -3.9712 3.5271 -0.0105 1.4984 -0.8532 -0.9124 1.8547 0.1218 -0.1475 -1.5219 -2.0418 0.5382 -1.3496 2.3781 0.2958 0.5721 -2.0245 0.1304 -0.0199 1.6008 -0.9561 0.2031 -0.8766 -0.4165 0.5393 0.2539 -0.5428 -0.2740 -1.1169 -0.1717 2.9904 -0.9656 0.8235 -3.5244 -0.9027 0.3719 -2.1473
-2.2666 1.2182 2.8256 4.5171 -1.3075 0.9790 2.7665 1.0700 -0.9942 -3.3767 -0.3156 0.4785 1.7123 -1.2613 1.5977 0.3249 1.2350 -3.7411 -1.4883 -0.5105 4.2587 -1.6873 0.2750 -4.2650 4.1056 -0.0051 0.5986 -1.0523 -0.7342 2.0194 0.1657 0.1368 -1.2139 -2.0748 0.1573 -1.4249 2.8057 -0.0932 -0.1745 -2.1396 -0.1529 -0.0739 1.6024 -0.1129 0.7677 -0.9787 -0.2896 0.6892 0.2811 -0.1184 0.0720 -1.5615 -0.0725 3.1109 -0.8266 0.5873 -3.4646 -0.8291 0.2940 -2.0454
-2.2300 1.0782 2.9445 4.8468 -1.4664 0.8641 3.0699 -0.0934 -1.1227 -3.2839 -0.6814 0.5329 1.8608 1.6246 0.7338 -2.0021 0.8414 -3.9467 -2.0180 -1.0339 4.0283 0.2827 0.8933 -3.9540 3.9698 -0.3699 1.0550 -0.8547 -0.7116 2.0703 0.1840 0.2906 -1.2109 -2.0775 -0.0299 -1.3818 2.7465 -0.5534 0.1823 -2.0835 -0.3626 -0.0319 1.5818 0.2312 0.7665 -0.9067 -0.3424 0.7158 0.2857 0.0115 0.0712 -1.7209 -0.3264 3.0677 -0.7819 0.6951 -3.3931 -0.8687 0.3053 -1.9915
-1.8944 1.1959 3.0223 3.8032 1.5665 0.5508 3.1521 -1.7733 -0.6328 -3.3219 -0.0616 0.5444 1.6825 -1.5694 1.5745 0.4294 0.5424 -3.9056 -2.0631 -0.9599 4.0254 -1.6335 1.5353 -3.9303 4.0347 0.1760 0.3890 -0.9831 -0.8055 2.0081 0.2298 0.1427 -1.2009 -2.0094 0.3842 -1.3559 2.8153 -0.4505 -0.2449 -2.0839 -0.0046 -0.0258 1.6452 -0.4386 0.7248 -0.9285 -0.3156 0.6933 0.3283 -0.2377 0.0556 -1.6805 -0.2867 3.0705 -0.7571 0.9032 -3.3716 -0.7649 0.4572 -1.9910
-1.3382 1.1027 3.0548 3.7567 -1.4293 -0.9954 3.3680 -0.5173 1.8572 -3.4124 -0.9507 0.0178 1.6071 1.6249 1.1835 0.6925 0.9743 -3.6873 -0.9378 -0.9952 4.1116 -1.5358 1.1394 -4.1843 3.1239 -0.2627 -0.4939 -1.3306 -1.0032 1.8506 0.1290 0.4969 -1.0649 -2.0077 -0.0119 -1.6321 2.4278 -0.6239 0.7980 -2.1867 -0.4663 -0.3338 1.2412 0.2581 1.1173 -1.1417 -0.4311 0.5838 0.0973 0.0939 0.1874 -1.1642 -0.3860 3.0677 -0.6270 0.8968 -3.4128 -0.7614 0.4907 -2.0254
-2.0948 0.9235 2.9439 3.4617 0.8936 -1.1134 2.6505 -2.0795 0.7776 -3.2834 -0.7356 0.2613 1.8459 1.3691 1.3654 0.8184 0.8066 -3.6140 -1.5037 -0.9938 4.2262 -1.3596 1.4343 -3.9425 3.0774 -0.4553 -0.9058 -1.0779 -1.0627 1.9731 0.3177 0.3867 -0.9796 -1.8814 0.0983 -1.4479 2.7696 -0.6837 0.5584 -2.0332 -0.3766 -0.1506 1.5346 0.0079 1.1075 -0.9413 -0.4686 0.7104 0.3168 -0.0446 0.2614 -1.5279 -0.4535 3.1212 -0.4770 0.9513 -3.2595 -0.6124 0.4823 -1.8931
-2.3007 -0.9740 3.9948 4.6297 -1.4092 0.5681 2.8322 1.1965 -0.8953 -3.3270 -0.1798 0.5367 1.7828 -1.1872 1.6385 -1.8586 0.5349 -4.0554 -2.1262 1.2303 3.0882 0.4197 0.7172 -3.9756 4.1581 -0.0714 0.5783 -0.9676 -0.5301 2.0975 0.2312 0.1146 -1.1991 -2.0311 0.1602 -1.3929 2.8371 -0.0193 -0.1584 -2.0889 -0.0746 -0.0271 1.6520 -0.0465 0.8012 -0.9234 -0.1987 0.7333 0.3321 -0.0785 0.0999 -1.8086 0.0491 3.0208 -0.6583 0.5224 -3.4389 -0.7845 0.2439 -2.0147
-2.4226 -0.9075 4.0746 4.4322 -1.3594 -0.7150 2.9850 1.3646 -0.5587 -3.2840 -0.4420 0.4415 1.7712 -0.7612 2.0924 0.8149 0.6148 -3.6489 -2.2597 1.2559 3.0708 -1.4210 0.5668 -4.1335 3.0569 -1.0247 -0.6365 -1.0535 -0.5337 2.1866 0.3282 0.2664 -0.9989 -1.8749 0.0400 -1.3852 2.9077 0.1976 0.2410 -2.0250 -0.1970 -0.0246 1.6305 0.2038 1.0644 -0.9218 -0.1924 0.8308 0.3575 0.0620 0.3005 -1.9251 0.0772 3.0627 -0.4961 0.4930 -3.3473 -0.6006 0.2758 -1.9168
-0.9499 -1.3961 3.9987 3.6486 1.0646 2.1706 2.8868 0.0804 -0.7760 -3.4639 0.7960 0.3801 1.5570 -2.1855 0.0079 -1.4496 1.5638 -4.0470 0.1621 0.5412 3.1520 0.2031 -0.0101 -4.1897 3.3573 -0.1729 1.5408 -1.5353 -0.4756 1.9102 0.0106 -0.1520 -1.3405 -2.0955 0.7084 -1.5399 2.2869 0.0717 0.5088 -2.2685 0.4536 -0.1846 1.1743 -0.9592 0.6067 -1.2584 -0.1310 0.5781 -0.0500 -0.4350 -0.0545 -0.6811 -0.3311 2.9817 -0.6551 0.5876 -3.5633 -0.8795 0.3813 -2.1402
-1.0118 -1.4030 4.0819 3.4397 1.7052 1.1656 2.9991 -0.4805 -0.6461 -3.2836 0.9437 0.4317 1.3743 -2.5408 0.2476 0.2999 -0.2222 -4.0129 -0.0337 0.6001 3.2244 -0.9282 1.7109 -4.0221 2.1938 1.0513 1.0000 -1.5290 -0.6271 1.9162 0.1044 -0.2802 -1.2699 -1.8876 0.7981 -1.4678 2.4250 -0.4048 0.6501 -2.1246 0.4966 -0.1329 1.1437 -1.2269 0.7249 -1.1997 -0.2294 0.6113 -0.0022 -0.6188 -0.0025 -0.7774 -0.3554 3.0392 -0.4992 0.7178 -3.4655 -0.7029 0.3651 -2.0730
-2.4556 0.8902 2.9524 4.6966 -0.1185 -0.8833 2.6538 -1.8493 0.5727 -3.2260 -0.7766 0.3828 1.8259 1.6434 1.1593 -1.3913 0.3853 -4.0653 -2.2380 -1.2567 3.9635 0.4668 1.6158 -3.5476 3.2838 -0.0101 -0.8162 -0.9387 -0.8040 2.1198 0.3447 0.3721 -1.0144 -1.8910 0.0198 -1.3867 2.8308 -0.4446 0.5595 -1.9974 -0.3811 -0.0596 1.5782 0.2475 1.0666 -0.8881 -0.3650 0.7859 0.3432 0.0502 0.2612 -1.8971 -0.4969 3.0589 -0.4605 0.8903 -3.2317 -0.6401 0.3882 -1.8778
-1.9901 1.3072 2.9625 5.0440 0.6252 0.0344 2.8905 -1.3034 -0.8551 -3.4017 -0.2415 0.4588 1.6249 -1.4251 1.6287 -1.7294 1.3718 -3.8647 -2.2056 -0.8088 4.0376 0.4182 0.5970 -3.9793 4.0442 -0.0355 0.7915 -1.0954 -0.7416 2.0308 0.2131 0.2256 -1.1463 -2.0525 0.2644 -1.4058 2.7854 -0.1439 -0.0407 -2.1528 -0.0879 -0.0682 1.5616 -0.2353 0.8587 -1.0091 -0.2787 0.7084 0.2663 -0.1129 0.1259 -1.7993 -0.1754 3.0657 -0.6258 0.7717 -3.3741 -0.7864 0.4272 -1.9691
-1.8912 1.2368 3.0941 3.7410 1.5534 0.0833 2.7849 -1.7580 -0.9068 -3.2737 0.0862 0.5405 1.6211 -1.7678 1.6959 0.7598 1.4262 -3.3995 -2.2734 -0.9072 4.0602 -1.2671 0.6526 -4.1373 3.1650 0.5881 -0.7787 -1.0573 -0.8143 2.1131 0.3491 0.0462 -1.0435 -1.8470 0.4768 -1.2888 2.8920 -0.6761 0.0042 -2.0077 0.0702 0.0317 1.6647 -0.5934 0.9027 -0.9126 -0.3291 0.8025 0.3677 -0.3300 0.2160 -1.7857 -0.2572 3.1374 -0.4526 0.8498 -3.2564 -0.5770 0.4468 -1.8706
-0.6102 1.2279 2.9925 3.9335 0.3411 1.8654 2.6839 0.9466 -0.6004 -3.5917 -0.1011 0.2108 1.3017 -1.8412 1.2970 -1.7718 1.0893 -4.1321 -0.8047 -0.8930 4.0630 0.4729 0.6764 -4.0432 3.8598 -0.5811 0.7894 -1.4818 -0.7378 1.8752 0.0832 0.0884 -1.2421 -2.1332 0.3316 -1.5889 2.6022 -0.3471 -0.0230 -2.3130 -0.0181 -0.2591 1.3310 -0.5084 0.8012 -1.2240 -0.3037 0.5645 0.0807 -0.2557 0.0291 -0.9503 -0.2310 3.0370 -0.6269 0.7238 -3.5186 -0.8412 0.3931 -2.1177
-0.5589 -0.7067 4.2351 2.0183 -2.5106 0.7622 4.0623 0.3055 0.7509 -2.9353 -1.0070 0.4962 2.1237 1.9463 -0.1023 -2.2325 0.7411 -3.9938 -2.1919 0.4949 2.9742 -0.0076 1.2302 -4.1532 2.6100 -1.4090 1.4319 -0.4946 -0.6872 1.8795 0.1957 0.5806 -1.3990 -1.9826 -0.1046 -1.4586 2.8140 -0.2986 0.4253 -1.8544 -0.4528 -0.1235 1.7053 0.7380 0.5241 -0.6576 -0.2432 0.5582 0.4311 0.3226 -0.1283 -1.1880 -0.2074 2.9717 -0.9726 0.8337 -3.5234 -0.8844 0.4343 -2.1272
-1.8056 -1.0050 4.0058 2.4597 0.4720 2.2610 3.9411 -0.8119 0.0833 -2.9501 0.6435 0.9095 1.8096 -2.3600 -0.7082 -1.8083 1.8166 -3.7017 -0.7219 0.9925 3.2645 -0.0137 0.5120 -4.2497 2.5665 0.9454 0.9284 -0.7470 -0.8964 1.8959 0.1330 -0.1845 -1.5146 -1.9276 0.7755 -1.2088 2.6643 -0.2132 -0.0444 -1.8912 0.3331 0.1079 1.5584 -1.2432 0.1342 -0.7972 -0.3791 0.5911 0.2642 -0.6310 -0.2823 -1.0392 -0.1678 3.0303 -0.8407 0.9126 -3.4483 -0.8546 0.4890 -2.0540
-0.5423 -0.9285 4.0827 3.1274 0.4991 2.6926 2.9036 0.7392 -0.3513 -2.9406 0.7384 0.7644 1.4540 -2.3925 0.6325 -1.7978 1.7988 -3.8817 -0.9369 1.1284 2.9402 -0.2387 0.2443 -4.4947 3.2029 -0.4826 1.6686 -0.8154 -0.8745 1.7388 0.0611 -0.2844 -1.7210 -1.9762 0.7457 -1.3902 2.2324 -0.0739 0.5961 -1.9286 0.3442 -0.0604 1.5305 -1.2037 -0.1287 -0.8550 -0.3920 0.4215 0.1714 -0.6935 -0.4705 -0.7693 -0.0833 2.8684 -0.9532 0.7715 -3.6589 -0.9295 0.3991 -2.2485
-1.1609 1.3759 2.9815 2.8815 -1.4438 -1.1757 3.4465 1.3207 1.0014 -3.4392 -0.7444 0.1021 1.5316 -0.9369 1.9527 0.7309 0.5365 -3.7749 -1.1013 -0.6587 4.2194 -1.4673 1.0249 -4.1858 3.4165 -0.8277 -0.0156 -1.3839 -0.8086 1.9478 0.1786 0.3443 -1.0626 -1.9759 -0.0167 -1.5981 2.6185 0.4224 0.2820 -2.1825 -0.3663 -0.2722 1.3565 0.1717 1.0882 -1.1339 -0.3482 0.6455 0.1548 0.0314 0.2178 -1.2026 -0.1155 3.1207 -0.5692 0.6780 -3.4417 -0.6988 0.3611 -2.0325
-2.2172 1.2904 2.8829 5.1539 -0.6281 -0.0510 2.8637 1.0659 -0.7989 -3.3812 -0.3295 0.4713 1.6836 -1.2267 1.7541 -1.5458 -0.0254 -4.1474 -2.2373 -0.7903 4.0431 0.2011 1.4087 -3.7739 4.0889 -0.1913 0.7769 -1.0530 -0.6751 2.0809 0.2173 0.0954 -1.1595 -2.0448 0.1362 -1.4064 2.8144 -0.1371 -0.0413 -2.1331 -0.1642 -0.0549 1.5910 -0.1184 0.8696 -0.9842 -0.2961 0.7302 0.2888 -0.1433 0.1340 -1.8637 -0.1545 3.0597 -0.6588 0.6410 -3.3800 -0.7834 0.2426 -1.9893
-2.3484 -0.8392 4.1569 4.4038 -1.2547 -0.8855 3.0012 1.4097 -0.3981 -3.2940 -0.4850 0.3989 1.7366 -0.9002 2.0601 -1.4762 0.7619 -3.9839 -2.2730 1.2578 3.0136 0.7857 0.4967 -3.7877 3.0298 -0.9665 -0.6930 -1.0957 -0.5760 2.1728 0.3533 0.2739 -0.9824 -1.8666 0.0327 -1.4050 2.8995 0.1759 0.2920 -2.0310 -0.2242 -0.0498 1.6120 0.1367 1.1011 -0.9394 -0.2235 0.8221 0.3475 0.0373 0.3132 -1.9227 0.0844 3.0580 -0.3362 0.5082 -3.3101 -0.5860 0.2940 -1.8932
-1.2647 1.0934 3.0817 2.8423 -1.3769 -1.3468 3.3977 -0.4632 1.9011 -3.3353 -1.0379 0.0132 1.6769 1.6888 1.1083 -1.5991 1.1770 -4.0151 -0.8790 -1.0091 4.1337 0.6694 0.9505 -3.8363 3.1439 -0.3145 -0.4558 -1.2754 -1.0095 1.8727 0.1852 0.5241 -1.0384 -1.9428 -0.0708 -1.6286 2.4470 -0.5941 0.8557 -2.1211 -0.5168 -0.3271 1.2805 0.3282 1.1366 -1.0898 -0.4383 0.6050 0.1327 0.1243 0.2157 -1.1023 -0.3968 3.0913 -0.4549 0.8657 -3.3726 -0.7113 0.4758 -1.9942
-2.3788 0.7587 2.8472 2.5153 -2.2887 -0.2995 4.0224 0.7739 0.5303 -3.0186 -1.0685 0.5148 1.6955 2.0421 0.6879 -2.0283 0.6638 -3.9431 -1.1498 -0.6903 4.2743 0.2334 0.9834 -4.0076 3.1049 -1.3885 0.6237 -0.6427 -0.7525 2.0383 0.2397 0.4771 -1.2166 -1.9354 -0.2162 -1.3956 2.8781 0.0244 0.1357 -1.8917 -0.5435 -0.0474 1.6327 0.6219 0.7759 -0.7385 -0.3277 0.7042 0.3833 0.2228 0.0684 -1.3371 -0.2818 3.1284 -0.7869 0.6742 -3.4159 -0.7974 0.3155 -2.0035
-0.7522 1.1000 3.0572 2.2971 0.5119 2.3437 3.9376 -0.6533 0.2093 -3.0306 0.4362 0.8531 1.9206 -2.2618 -0.7421 0.0519 0.4322 -4.1454 -1.4983 -0.9406 4.0330 -1.6853 1.8846 -3.8114 2.4471 1.0201 1.0284 -0.7642 -1.0055 1.8555 0.1385 -0.1536 -1.5090 -1.9609 0.6849 -1.2347 2.6414 -0.1097 0.0366 -1.9379 0.2048 0.0708 1.5833 -1.1978 0.1383 -0.8202 -0.4606 0.5627 0.2716 -0.6362 -0.2924 -1.0644 -0.3659 3.0363 -0.9186 1.0264 -3.4180 -0.8565 0.4840 -2.0719
-0.8684 1.1521 2.9719 2.0750 -2.4606 1.1454 3.7981 0.5026 0.7350 -3.0607 -1.3549 0.1929 1.7410 2.0479 0.2518 -2.2096 0.6953 -4.1198 -0.0089 -0.8605 3.9155 -0.0366 1.3988 -4.1116 2.5271 -1.2287 1.6817 -0.8364 -0.9529 1.7770 0.0413 0.6112 -1.3481 -2.0403 -0.2652 -1.6317 2.5769 -0.2068 0.5680 -1.9851 -0.6826 -0.3114 1.3984 0.7416 0.6912 -0.8679 -0.4212 0.4780 0.2125 0.2822 -0.0826 -0.5076 -0.3015 2.9408 -0.9949 0.8831 -3.5622 -0.9541 0.4201 -2.1815
-0.8265 1.1828 3.1315 2.9223 1.7574 0.2881 2.7669 -1.7640 -0.5674 -3.4947 0.0023 0.1685 1.2273 -1.8604 1.7230 -1.2422 1.5214 -3.9052 -1.0190 -0.9528 4.1723 0.8355 0.5724 -3.8142 3.0207 0.5943 -0.5135 -1.5273 -0.8043 1.9370 0.2748 0.0959 -1.0260 -1.9004 0.4688 -1.5041 2.7022 -0.6419 0.3006 -2.1849 0.0493 -0.2124 1.3713 -0.6225 1.0420 -1.1684 -0.3339 0.6633 0.1683 -0.3190 0.2185 -1.1127 -0.2883 3.1429 -0.2400 0.8441 -3.3087 -0.5730 0.4986 -1.9363
-0.6330 1.1710 2.8314 3.0748 0.6563 2.7412 2.8519 0.9736 -0.2905 -2.9753 0.4543 0.7814 1.6543 -2.2995 0.5749 -0.2926 0.1080 -4.4009 -1.1036 -0.8668 3.9732 -1.7625 1.8050 -3.9535 3.2443 -0.2847 1.6899 -0.6805 -0.9854 1.7214 0.0877 -0.2526 -1.7234 -2.0081 0.6029 -1.3651 2.2484 0.0733 0.6226 -1.9266 0.1762 -0.0437 1.6448 -1.0835 -0.1471 -0.7923 -0.4749 0.4193 0.2506 -0.6732 -0.4846 -0.8441 -0.3108 2.9071 -1.0904 0.8523 -3.6062 -0.9480 0.3585 -2.2475
-2.2856 1.2543 2.8849 3.4108 -1.7080 -0.9457 3.4551 1.6047 0.4263 -3.2739 -0.4836 0.5075 1.9115 -0.9892 1.7443 0.5810 0.7916 -3.7382 -2.1054 -0.7880 4.1012 -1.6644 0.6009 -4.1336 3.8730 -0.6668 -0.1012 -0.9213 -0.6017 2.1422 0.2689 0.2230 -1.1093 -1.9585 0.0258 -1.3733 2.8197 0.4161 -0.0193 -2.0361 -0.2421 -0.0125 1.6563 0.1301 0.9173 -0.8879 -0.2526 0.7816 0.3637 0.0058 0.1848 -1.7897 -0.1429 3.1033 -0.7022 0.5565 -3.3912 -0.7152 0.2659 -1.9691
-1.1071 1.0574 3.1008 4.7623 0.6207 0.7473 1.9138 1.1961 1.0025 -3.2209 0.3120 0.6659 2.0101 -2.1562 -0.4111 0.4086 0.5726 -3.9701 -2.1130 -0.9562 3.8911 -1.6611 1.5480 -3.9718 3.7449 -0.2879 1.1405 -0.9858 -1.0253 1.8867 0.1483 -0.2129 -1.4135 -1.9882 0.5602 -1.3292 2.4885 0.0543 0.3767 -2.0603 0.1009 -0.0176 1.5013 -1.1042 0.3987 -0.9660 -0.5155 0.5784 0.1995 -0.6622 -0.1785 -1.4788 -0.3910 3.0032 -0.7822 0.9075 -3.4272 -0.8140 0.3815 -2.0728
-1.9278 0.9031 2.9398 3.3452 -2.4654 0.8786 3.9423 0.4413 1.0604 -2.8890 -1.1307 0.5532 2.0951 1.9862 -0.2274 -2.4149 0.9611 -3.8606 -1.2504 -1.1419 3.9605 -0.1605 1.0374 -4.2319 2.5075 -1.4032 1.3036 -0.4093 -0.6547 1.8816 0.1073 0.6204 -1.4153 -2.0279 -0.1918 -1.4291 2.8076 -0.1832 0.4620 -1.8479 -0.5347 -0.0960 1.6671 0.8210 0.4726 -0.6466 -0.2590 0.5562 0.3979 0.3577 -0.1576 -1.1932 -0.4018 2.9805 -1.1200 0.8122 -3.5143 -0.9826 0.4259 -2.1170
-0.5592 1.0270 3.1301 3.5504 -0.6889 -1.1424 2.5299 1.4479 1.5466 -3.5857 0.0971 0.1426 1.7005 -1.8505 0.9456 0.8284 1.1148 -3.5122 -1.2727 -0.9969 4.1595 -1.2038 0.4758 -4.3541 3.6582 -0.1145 0.1512 -1.6295 -0.7765 1.9066 0.1783 -0.0380 -1.1129 -1.9990 0.3638 -1.5829 2.3238 0.4777 0.5352 -2.2834 0.0354 -0.2624 1.2627 -0.5072 1.0052 -1.2727 -0.3292 0.6260 0.0482 -0.3367 0.1629 -1.1637 -0.3431 3.1230 -0.4321 0.6384 -3.4284 -0.6786 0.3037 -2.0392
-1.0737 1.3745 3.0056 2.8759 -1.4598 -1.1430 3.4299 1.3271 1.0116 -3.4494 -0.7403 0.0746 1.5126 -0.9469 1.9519 -1.5661 1.0016 -4.0760 -1.0731 -0.6824 4.2076 0.6801 0.6084 -3.9208 3.4140 -0.8271 0.0065 -1.4215 -0.7797 1.9430 0.1930 0.3387 -1.0634 -1.9724 -0.0257 -1.6173 2.6092 0.4207 0.2944 -2.1899 -0.3605 -0.2899 1.3436 0.1687 1.0950 -1.1504 -0.3333 0.6399 0.1441 0.0342 0.2195 -1.1780 -0.1158 3.1212 -0.4356 0.6439 -3.4314 -0.6923 0.3537 -2.0290
-1.5162 1.0638 3.0870 3.4024 0.5350 -1.3571 2.6620 0.3457 2.1454 -3.2423 0.3108 0.6202 2.1091 -2.0407 -0.2350 -1.3377 1.8053 -3.6696 -1.9975 -1.0516 4.0708 0.5036 0.4855 -3.9752 3.6818 0.1915 -0.0082 -1.0804 -1.0392 1.9633 0.2743 -0.1614 -1.2446 -1.8973 0.5793 -1.2945 2.3863 0.1709 0.7679 -2.0367 0.1185 0.0115 1.5159 -1.0638 0.6032 -0.9726 -0.4883 0.6762 0.2375 -0.6072 -0.0069 -1.5762 -0.4335 3.0946 -0.4423 0.8660 -3.3067 -0.6737 0.4135 -1.9422

>  <OB_ATOM_TYPES> (2simA1)
C.3 O.3 O.3 O.3 O.3 O.co2 O.2 O.co2 C.3 N.am O.2 C.2 C.3 C.3 C.3 C.3 C.3 C.2 C.2 C.2

>  <ENSEMBLE_RMSD> (2simA1)
0.661 0.796 0.895 0.939 0.959 0.977 0.993 1.009 1.057 1.068 1.076 1.101 1.111 1.140 1.195 1.219 1.224 1.242 1.244 1.247 1.259 1.260 1.263 1.268 1.301 1.314 1.342 1.350 1.398 1.411 1.416 1.430 1.434 1.453 1.461 1.487 1.494 1.508 1.511 1.511 1.514 1.514 1.520 1.523 1.526 1.533 1.535 1.571 1.639 1.797

$$$$
