
 OpenBabel03071213D

 13 12  0  0  0  0  0  0  0  0999 V2000
   54.5690   19.4580   -1.5220 C   0  0  0  0  0
   52.8570   18.1860    0.0450 C   0  0  0  0  0
   53.0330   15.9300   -4.3380 N   0  0  0  0  0
   51.6950   20.5290   -6.1650 O   0  0  0  0  0
   53.1510   18.5470   -6.8250 O   0  0  0  0  0
   54.8770   17.0990   -3.8570 O   0  0  0  0  0
   50.5590   18.3330   -7.0080 O   0  0  0  0  0
   52.5110   18.2580   -2.2300 C   0  0  0  0  0
   51.6470   18.3580   -4.5460 N   0  0  0  0  0
   53.6580   18.2450   -1.2680 C   0  0  0  0  0
   52.8450   18.2740   -3.7280 C   0  0  0  0  0
   53.6540   17.0160   -4.0170 C   0  0  0  0  0
   51.7110   18.9570   -6.2940 P   0  0  0  0  0
  1 10  1  0  0  0
  2 10  1  0  0  0
  3 12  1  0  0  0
  4 13  1  0  0  0
  5 13  1  0  0  0
  6 12  2  0  0  0
  7 13  2  0  0  0
  8 10  1  0  0  0
  8 11  1  0  0  0
  9 11  1  0  0  0
  9 13  1  0  0  0
 11 12  1  0  0  0
M  END
>  <MOLID> (2tmnA1)
2tmnA1

>  <SMILES_CANONICAL> (2tmnA1)
CC(C[C@@H](C(=O)N)NP(=O)(O)O)C	

>  <FINGERPRINT> (2tmnA1)
0000000000000001000000000000000000000001000000000000000000000000000100000000000000000000000000000000000000000000000001000000000000000000000000000000000000000000000000000000000000000000000000000000000000000000000000000000000000000000000000000000000000100000000000010000000000000000000000000000000000000000000000001000010000000000000000000000000000000000010010000000000100110000000010000000010000000000100000000000000000000000000000100000000000000000000000000000000001100000000000000000000001100000000000000000000000000000000000000000000000110000000000000000000000000000000000010000000000000011000000000000000000000000000000000000000000000001001000000000000000000000000000000011011000001000000001101000000000000000000000000000000000000000000000000000000000000000000100000000000000000000000000000000000000000000000000000000000000000000000000000000000000000000000000000010000000000001100000000000000000000000000000000000000000000000000000000000010000000000000000000000000000000000000000000000000000000000000000001000000000000000

>  <MACCS166> (2tmnA1)
000000000000000000000000000010000000000000100001000001000000000000000000010000100001000001110110000001010100011100101000000100000110000100111100010110100111011110010000

>  <OB_MW> (2tmnA1)
210.077

>  <OB_logP> (2tmnA1)
0.6599

>  <OB_PSA> (2tmnA1)
122.46

>  <OB_MR> (2tmnA1)
47.6522

>  <OB_ATOMIC_CHARGES> (2tmnA1)
5.95522e-05 5.95522e-05 -0.0865616407 -0.1243071995 -0.1243071995 -0.2701276217 -0.2336319338 0.0274253052 -0.1103819261 0.0018968262 0.1632865272 0.2771216058 0.4794681526

>  <MCT_HBD> (2tmnA1)
4

>  <MCT_HBA> (2tmnA1)
6

>  <ENSEMBLE_TOTAL> (2tmnA1)
50

>  <ENSEMBLE_COORDS> (2tmnA1)
1.0470 1.6773 2.6705 0.8586 -0.5505 3.7077 -0.1142 -2.6685 0.0197 -1.4396 2.2110 -2.5149 0.5031 0.6443 -3.0944 1.6572 -1.2164 -0.2627 -1.6785 -0.2108 -2.4275 -0.5646 0.0250 1.7791 -0.2758 0.8157 -0.5131 0.7963 0.2134 2.4083 -0.5321 -0.3490 0.3136 0.4752 -1.4233 -0.0077 -0.7326 0.8318 -2.0786
0.9263 1.8673 2.8986 1.1845 -0.4450 3.7053 -0.7044 -2.4301 0.2556 -1.9553 1.7662 -2.6434 0.5813 1.6061 -2.3205 1.3403 -1.9381 -0.6827 -0.7524 -0.3222 -2.9862 -0.2209 0.0207 1.7334 -1.0310 0.3664 -0.5226 1.0280 0.4217 2.4803 0.0820 -0.1382 0.2628 0.3162 -1.5804 -0.1053 -0.7944 0.8055 -2.0755
1.8623 0.9322 2.3554 -0.5057 1.5683 2.7304 -0.0066 -2.8042 -0.1433 -1.9691 2.0590 -1.6995 0.5082 1.4711 -1.9906 1.8042 -1.6564 -0.9854 -1.2611 0.0376 -2.8535 0.0091 -0.6942 1.8286 -0.9946 -0.0431 -0.3010 0.4851 0.4331 2.7148 0.2368 -0.4477 0.3539 0.7658 -1.6808 -0.3289 -0.9345 0.8252 -1.6810
0.5489 1.9282 3.0293 1.1352 -0.4004 3.5710 1.9420 -1.4076 -0.5277 -0.6712 2.2192 -2.0322 0.0673 -0.0060 -3.0713 0.1082 -2.5414 0.3009 -2.2841 0.5780 -2.8279 -0.3155 0.0816 1.6362 -1.1136 -0.0562 -0.6308 0.8594 0.5709 2.4498 0.0818 -0.1235 0.1926 0.6755 -1.4945 0.0074 -1.0339 0.6518 -2.0974
-0.0099 1.9164 1.9047 0.1964 0.1032 3.5483 0.7217 -3.1135 0.0287 -0.4300 2.5429 -2.0739 -1.0372 0.3501 -3.2500 2.2827 -1.4370 0.3095 -2.1033 1.0281 -1.1693 -0.5949 -0.4017 1.2763 0.3405 0.2218 -0.9264 0.3430 0.4605 2.0900 -0.0408 -0.8708 -0.0526 1.1282 -1.7999 0.1119 -0.7965 0.9999 -1.7973
-0.0067 1.9964 1.9303 0.4628 0.0516 3.3694 0.5363 -3.1528 0.4494 -0.4534 2.5590 -1.5925 -0.7363 0.8002 -3.4312 2.1809 -1.5416 0.3005 -2.1338 0.8044 -1.4383 -0.6539 -0.2693 1.1951 0.3067 0.0250 -1.0623 0.3818 0.5388 1.9436 -0.1343 -0.9327 -0.0652 1.0017 -1.8741 0.2346 -0.7517 0.9950 -1.8333
1.5403 1.6345 2.1073 0.4877 0.1937 3.8048 -0.2841 -2.6842 0.7042 -2.3537 1.3700 -2.5401 -0.1977 2.2951 -1.5118 1.5556 -2.1747 -0.5816 -0.1690 0.4882 -3.1477 -0.2781 0.0710 1.4743 -0.9948 -0.2039 -0.8125 0.9240 0.2811 2.3636 0.1292 -0.3770 0.0906 0.5500 -1.8228 0.0307 -0.9096 0.9290 -1.9817
-0.0455 1.7333 3.0088 1.1128 -0.3790 3.5100 2.0728 -1.0055 0.1161 -0.6710 2.2681 -2.6815 -0.2524 -0.2250 -3.1015 0.5647 -2.6282 -0.5043 -2.2773 0.5716 -2.0006 -0.5485 -0.2959 1.6919 -0.1486 0.6920 -0.5528 0.5357 0.4765 2.4087 -0.3003 -0.5233 0.2192 0.8051 -1.4950 -0.0932 -0.8473 0.8104 -2.0208
-0.9114 1.2358 3.3270 1.3160 0.2251 3.6159 0.5481 -2.4982 -0.2390 0.3920 1.4461 -2.3320 -1.1110 -0.4540 -3.1687 2.2008 -0.9966 -0.7987 -2.0357 1.5783 -2.2018 -0.1070 -0.4480 1.7178 -0.9780 -0.0348 -0.5046 0.3015 0.7016 2.6061 0.2401 -0.1492 0.2781 1.1002 -1.2397 -0.3089 -0.9556 0.6335 -1.9911
1.0292 -0.7639 3.4512 -1.0753 0.5072 3.3214 1.1444 -1.9110 0.1325 -0.3626 1.5921 -2.6049 -1.0978 -0.8527 -2.8330 2.4265 -0.4182 -1.0593 -2.6191 0.8727 -2.0380 0.6433 0.7891 1.5723 -0.8254 0.1606 -0.3412 -0.0096 -0.1947 2.5163 0.5246 0.4306 0.1097 1.4627 -0.6579 -0.3355 -1.2407 0.4461 -1.8916
1.3579 1.7272 2.7692 1.2274 -0.6557 3.3742 -0.8808 -2.5200 0.2472 -2.1767 0.7156 -2.2672 -0.1450 2.1328 -2.9237 1.2310 -1.6785 -0.1472 -0.0548 -0.2981 -2.9061 -0.4115 0.3045 1.7962 -0.0555 0.7975 -0.5766 1.0265 0.3457 2.2636 -0.5895 -0.1663 0.3680 0.0467 -1.5094 0.1245 -0.5757 0.8047 -2.1221
1.1323 -0.7039 3.3068 -0.6591 0.9849 3.3689 2.4462 -0.9138 -0.8432 -1.1288 2.0850 -2.2609 -0.4651 -0.2754 -3.0134 0.7731 -2.1376 0.1717 -2.6816 0.2128 -2.1435 0.7911 0.8157 1.3882 -0.8298 0.1698 -0.3637 0.1036 0.0315 2.4827 0.5718 0.2693 -0.0050 1.2361 -1.0654 -0.2016 -1.2897 0.5271 -1.8871
1.5230 -0.5386 3.4403 -0.5893 0.7030 3.6959 2.2333 -0.6764 -0.4337 -1.8126 1.9505 -2.6706 -0.2540 0.0179 -3.2994 0.5374 -2.2347 -0.4078 -2.1576 -0.2997 -1.8113 0.5693 0.6761 1.5146 -0.1625 0.9765 -0.7716 0.2453 -0.1256 2.7524 0.0173 -0.0049 0.2833 0.9381 -1.0878 -0.2203 -1.0878 0.6437 -2.0718
1.2014 -0.7283 3.4342 0.0127 1.4267 3.5232 -0.2423 -2.3964 0.0723 -2.3988 1.0390 -1.5962 -0.6424 1.8519 -3.2750 1.8402 -1.5592 -0.4701 -0.9683 -0.5137 -2.8136 0.8582 0.5747 1.3672 0.2228 0.7983 -0.9425 0.2559 0.1885 2.6971 0.0818 -0.0502 0.2296 0.6816 -1.3901 -0.1047 -0.9029 0.7589 -2.1215
1.7455 1.6903 2.2646 0.9837 -0.1105 3.7635 1.2978 -2.2039 -0.3637 -2.2417 1.4739 -2.6695 0.1545 2.1118 -2.0269 -0.8155 -2.4817 0.5239 -0.3698 -0.0298 -3.0665 -0.1298 0.2253 1.5955 -1.0935 0.1689 -0.6035 1.1915 0.2885 2.3238 0.0592 -0.2527 0.1740 0.0963 -1.7568 0.1403 -0.8780 0.8767 -2.0554
-0.1699 1.0820 3.7869 2.0500 0.5955 2.8432 1.6238 -1.9636 -0.6242 -1.3260 2.2615 -2.3091 0.6051 0.6169 -2.6650 -0.6257 -2.3912 -0.3330 -1.7197 -0.1066 -2.6975 0.0101 -0.3145 1.7710 -0.8334 0.4559 -0.3569 0.6026 0.8624 2.5091 0.2774 -0.2309 0.2835 0.3386 -1.6374 -0.2513 -0.8329 0.7698 -1.9567
-0.0914 1.9046 2.5102 -0.2671 -0.4429 3.2908 1.8111 -1.9182 -0.5779 -1.1203 2.3329 -2.2073 -0.4528 0.0985 -3.2658 -0.3631 -2.4901 -0.0817 -2.0220 0.2177 -1.4071 1.3127 0.1375 1.4331 0.4500 0.6547 -0.7822 0.6477 0.6050 2.7078 0.3261 -0.2431 0.3518 0.5406 -1.6581 -0.1189 -0.7716 0.8016 -1.8526
0.0100 -0.1275 3.8304 0.4508 2.0013 2.6700 0.0636 -2.8539 0.0997 -1.8844 1.9649 -1.4358 -0.1383 1.4122 -3.2260 1.7046 -1.7636 -1.0977 -1.5411 -0.3112 -2.2349 0.9015 -0.1364 1.5255 0.3300 0.5950 -0.6990 -0.0114 0.5754 2.4963 0.1524 -0.4847 0.2586 0.7472 -1.7381 -0.3314 -0.7848 0.8665 -1.8558
1.0603 -0.1165 3.3602 -0.2617 1.8441 2.6700 0.3132 -2.7471 0.8999 -2.0466 1.3945 -0.8289 -0.4895 2.1973 -2.6984 1.9458 -2.0646 -0.5792 -1.7903 0.1525 -2.9093 0.8316 0.4322 0.9648 0.2269 -0.0137 -1.3259 0.1338 0.4356 2.3048 0.1574 -0.5433 0.0253 0.9160 -1.8450 0.0500 -0.9969 0.8739 -1.9333
1.0034 1.7870 2.1041 -0.0223 0.1482 3.6359 0.2198 -2.8335 0.3517 -1.5145 0.7996 -3.3614 -2.2567 1.5905 -1.0428 2.2734 -1.9570 -0.2098 -0.0024 1.9965 -1.8755 -0.3248 -0.1082 1.2066 -0.4862 -0.4503 -1.2008 0.6302 0.3363 2.2892 0.4176 -0.4543 -0.0647 1.0728 -1.8098 0.0073 -1.0103 0.9548 -1.8398
1.4345 0.1611 3.3842 -0.2889 1.7749 2.6711 2.0268 -1.9889 -0.1282 -1.9546 1.5684 -0.8697 -0.5795 1.9590 -2.9967 -0.0660 -2.8283 0.3340 -1.9156 -0.0510 -2.6894 0.9429 0.4518 0.9865 0.2416 0.0275 -1.2923 0.3498 0.4415 2.3742 0.1572 -0.4597 0.0726 0.6749 -1.8757 0.1026 -1.0232 0.8193 -1.9489
-0.3503 1.4781 3.1725 1.9972 0.8373 2.7709 -0.6752 -2.7920 0.2527 -2.0888 1.4538 -2.4182 0.1868 2.2596 -1.5579 1.2248 -2.3863 -0.9824 -0.0440 0.2064 -2.8501 0.1630 -0.4339 1.7063 -0.9111 0.0519 -0.4302 0.6228 0.9319 2.1579 0.2482 -0.5528 0.2027 0.3290 -1.9906 -0.2401 -0.7025 0.9365 -1.7842
0.2020 0.1064 3.5002 1.1437 2.0969 2.3964 -0.0748 -3.1501 -0.2043 -2.0829 1.7648 -1.9595 0.3759 1.8907 -1.2662 1.3882 -1.6744 -1.2081 -0.4529 0.1548 -2.7643 0.8788 0.0112 1.1125 -1.1570 -0.1450 -0.3052 0.2844 0.8724 2.2033 -0.1624 -0.8719 0.4612 0.4782 -1.9072 -0.4189 -0.8213 0.8515 -1.5473
-1.5838 1.1709 2.2917 0.7796 1.2672 2.9874 0.6366 -3.0321 0.1932 0.2031 2.0718 -1.3088 -0.9823 0.8311 -3.2102 2.5252 -1.9206 -0.5109 -2.1229 1.3724 -1.1308 0.0091 -0.5113 1.4497 -0.4288 -0.5509 -0.9545 -0.1593 0.9336 1.8555 0.6058 -0.6130 0.0640 1.3608 -1.9036 -0.1192 -0.8431 0.8846 -1.6070
0.0295 -0.9470 3.5519 -0.1531 1.5025 3.4179 2.4940 -0.6568 -0.6612 -1.2737 2.0357 -2.7143 -0.6951 -0.4474 -2.9374 0.9371 -2.3508 -0.7288 -2.4115 0.3354 -1.3951 0.8367 0.2475 1.5469 0.0074 0.8443 -0.6583 -0.2177 0.2192 2.6267 0.2775 -0.2656 0.2397 1.2516 -1.2014 -0.4287 -1.0828 0.6843 -1.8595
-0.3803 1.4971 3.1378 1.2282 -0.3292 3.5145 2.1109 -0.2118 -0.0504 0.2785 0.7340 -2.9905 -1.8020 -0.6767 -2.4631 1.2143 -2.2549 -0.6075 -1.8448 1.7565 -2.3812 -0.4711 -0.5369 1.7423 -0.5896 0.6538 -0.4291 0.4408 0.4228 2.4702 -0.2672 -0.5866 0.2468 1.0781 -1.1099 -0.1811 -0.9957 0.6417 -2.0087
-0.2255 1.9412 2.2838 1.9292 0.9557 2.9517 0.6968 -2.5709 -1.2691 -2.0508 1.8780 -1.8475 0.4850 1.9421 -1.4891 -0.2677 -2.9773 0.7854 -0.5637 0.2902 -2.9402 0.3224 -0.3738 1.6317 -0.9199 -0.1259 -0.4266 0.8852 1.0086 1.8647 0.2814 -0.7059 0.1555 0.1879 -2.1965 -0.0441 -0.7603 0.9346 -1.6562
-1.1147 -0.4694 3.0458 0.0787 1.6870 3.0777 0.8869 -2.6885 -0.8008 -0.8458 2.1641 -2.5771 -1.3699 -0.3449 -2.6078 2.6795 -1.2847 -0.3998 -2.1056 1.0977 -0.7874 0.8004 -0.0798 1.5160 0.4169 0.5740 -0.7909 -0.3899 0.5508 2.2031 0.4380 -0.5534 0.1267 1.4756 -1.5181 -0.3736 -0.9499 0.8651 -1.6319
1.8686 0.3522 2.9696 -0.1066 1.7819 2.6220 1.9162 -2.0615 -0.1698 -2.4551 1.0264 -1.0367 -0.3960 2.2938 -1.8892 -0.0280 -2.9106 0.7267 -1.5414 0.6434 -3.2609 0.8202 0.4673 0.7418 -0.1317 -0.3453 -1.3529 0.5608 0.4877 2.2300 -0.0087 -0.6068 0.0713 0.6052 -1.9757 0.2414 -1.1035 0.8471 -1.8934
1.5967 1.0409 2.5366 -0.8576 1.3105 2.7645 0.5165 -2.7461 -0.2947 -0.7898 0.0117 -3.0509 -2.3916 1.5730 -1.8050 2.1183 -1.2432 -0.9855 0.0245 1.8291 -1.6477 0.0460 -0.7962 1.7813 -0.9443 -0.1939 -0.3609 0.2863 0.3293 2.7619 0.3080 -0.4162 0.3396 1.0777 -1.4924 -0.3814 -0.9906 0.7936 -1.6577
1.5182 0.2325 3.8045 -0.3872 1.4560 2.8588 0.1404 -2.5935 0.5371 -2.1640 -0.1714 -1.7582 -1.5045 2.2496 -2.2791 1.1578 -1.7112 -1.3314 -0.2975 0.3643 -3.2288 1.1212 0.1700 1.3704 0.1727 0.7872 -0.7432 0.4593 0.2126 2.7292 0.1296 -0.2286 0.2969 0.5464 -1.5590 -0.2792 -0.8923 0.7914 -1.9770
0.5571 -0.8968 3.2056 -0.7117 1.2098 3.2787 2.7444 -0.6547 -0.1284 -1.2902 2.1810 -2.6015 -1.5105 -0.3286 -3.0570 1.3430 -2.4804 -0.1737 -2.3037 0.6731 -0.9828 0.5108 0.5892 1.2286 0.2656 0.4856 -1.1845 -0.2857 0.0612 2.3985 0.3501 -0.3122 0.0255 1.5104 -1.2643 -0.1122 -1.1796 0.7372 -1.8966
1.5357 0.3346 3.3526 -0.5731 1.4176 2.6764 0.3182 -2.7343 0.7358 -2.3885 -0.0710 -1.9852 -1.5512 2.1320 -0.9721 1.9561 -1.9899 -0.7074 -0.9052 1.4218 -3.2086 0.9341 0.4533 0.9657 0.2287 0.1171 -1.3112 0.3936 0.3017 2.3681 0.2086 -0.4737 0.0162 0.9378 -1.7899 -0.0537 -1.0948 0.8808 -1.8767
0.2133 1.9788 1.9362 0.7576 0.0481 3.3660 0.4226 -3.1709 0.2307 -1.2800 0.5083 -3.2039 -2.1993 1.2599 -0.9331 2.1451 -1.6402 0.1181 -0.3367 2.4038 -2.0032 -0.5289 -0.2867 1.2854 0.2668 0.1127 -1.0212 0.5723 0.5136 1.9434 -0.1486 -0.8855 -0.0537 0.9477 -1.9044 0.0957 -0.8319 1.0625 -1.7603
0.9894 -0.4376 3.5569 -1.1240 0.7143 3.0412 1.2226 -2.1042 0.3819 -0.4241 0.0793 -3.1273 -2.7958 0.1847 -2.1650 2.4495 -0.8495 -1.1060 -1.2128 2.0099 -1.8665 0.7291 0.7455 1.4090 -0.7308 -0.0808 -0.4398 0.0192 -0.0793 2.4582 0.6176 0.2080 0.0018 1.5243 -0.9513 -0.3035 -1.2641 0.5609 -1.8408
-1.1272 -0.2671 2.6515 0.0535 1.8916 2.7022 1.0423 -2.9099 0.8402 -0.6053 2.4176 -1.0021 -1.0409 1.1939 -3.2056 2.3175 -1.9397 -0.8158 -2.1695 0.5533 -1.1460 0.7823 0.1604 1.1067 0.3240 -0.1096 -1.2703 -0.4096 0.7637 1.8149 0.3454 -0.7927 0.0129 1.3477 -1.9156 -0.0645 -0.8602 0.9541 -1.6240
0.2393 -0.3741 3.7626 0.8099 1.9129 3.0514 -0.2585 -2.6233 -0.1424 -2.0023 -0.3284 -1.9055 -1.6337 2.2027 -2.0454 1.7113 -1.6913 -0.9027 -0.1985 0.6348 -3.2267 1.0209 0.0453 1.4587 0.1950 0.7356 -0.6955 0.2152 0.5984 2.6095 0.1186 -0.3206 0.3011 0.6353 -1.5905 -0.3224 -0.8524 0.7983 -1.9427
-0.2171 1.7864 2.6627 0.9702 -0.1699 3.5820 2.2404 -1.0407 0.2490 -0.3948 0.1168 -3.2536 -2.4507 0.3909 -1.7433 0.8636 -2.6760 -0.5972 -0.9962 2.2653 -2.2850 -0.4645 -0.4282 1.5965 0.0121 0.5896 -0.6203 0.4867 0.4975 2.3193 -0.1469 -0.6377 0.1335 1.0190 -1.5561 -0.1160 -0.9219 0.8621 -1.9275
-0.0088 0.2734 3.1706 0.5663 2.3006 1.8906 0.4411 -3.0261 1.0193 -2.1862 1.1381 -0.6431 -0.0664 2.3342 -1.4531 1.6659 -2.5031 -0.8619 -1.4334 0.9950 -2.9531 0.9464 0.0752 0.8928 -0.0177 -0.3654 -1.2976 0.0472 0.8882 1.7950 0.1173 -0.8767 0.0567 0.8332 -2.2010 -0.0130 -0.9048 0.9676 -1.6033
-0.6292 -0.2927 3.0119 0.0738 2.0369 2.6347 2.5567 -1.6188 -0.3950 -0.8350 2.4000 -1.2292 -1.2581 0.8863 -3.2519 0.8307 -3.0336 0.1700 -2.2304 0.4085 -1.0716 0.8545 0.2636 1.1050 0.3044 -0.0513 -1.2575 -0.2964 0.7387 1.9614 0.3613 -0.6929 0.0431 1.2533 -1.9018 -0.0555 -0.9855 0.8571 -1.6653
-1.1303 1.4714 2.5088 1.1146 0.6595 3.1236 0.4183 -3.0131 0.0298 -0.3838 1.1896 -3.1886 -2.4707 1.2021 -1.7055 2.4368 -1.9627 -0.3268 -0.3447 2.0995 -0.9319 -0.1757 -0.4821 1.3531 -0.4619 -0.4849 -1.0667 0.1411 0.8498 1.9876 0.5068 -0.5920 0.0092 1.2263 -1.9086 -0.1216 -0.8769 0.9714 -1.6712
-0.1949 1.9844 2.5035 0.3717 -0.0228 3.8103 2.0457 -1.8120 -1.1900 -0.7302 -0.0200 -3.0469 -2.1093 0.0687 -0.8874 -0.0174 -2.4177 -0.3592 -1.3140 2.0871 -1.9856 -0.0314 -0.2086 1.3861 0.5236 0.7672 -0.7855 0.5377 0.6649 2.4779 0.8912 -0.2456 0.1890 0.8891 -1.5987 -0.4720 -0.8618 0.7531 -1.6401
0.9826 -0.1290 3.2585 -0.6042 1.5667 2.4397 0.5383 -2.5205 0.7831 -2.2401 0.4311 -2.7822 -1.9982 1.9688 -0.7489 2.2045 -2.1862 -0.7672 -0.1758 1.6384 -2.3307 1.0176 0.5411 0.8866 -0.6326 -0.3650 -0.7610 0.1321 0.2972 2.0861 0.7400 -0.3598 -0.2957 1.2391 -1.7691 -0.1310 -1.2033 0.8862 -1.6372
1.1692 -0.4688 3.2724 -0.9365 0.7990 3.1640 2.7408 -0.7068 -0.7074 -0.5793 0.2435 -3.1933 -2.8903 0.0437 -2.1037 1.2145 -2.1437 0.2567 -1.4454 1.9608 -1.6956 0.6197 0.8383 1.2529 -0.7101 -0.2146 -0.5291 0.0522 -0.0139 2.3657 0.6216 0.1740 -0.1063 1.5213 -1.0295 -0.1539 -1.3777 0.5180 -1.8225
0.3664 2.0393 1.9137 0.8617 0.1732 3.4410 2.0371 -1.7322 0.3541 -1.5544 0.1889 -2.9487 -1.9993 1.6310 -0.8759 0.3003 -3.1427 -0.1787 -0.2257 2.1676 -2.4532 -0.4613 -0.2349 1.4034 0.2723 0.1464 -0.9512 0.6762 0.5650 1.9959 -0.1813 -0.8131 0.0343 0.7256 -2.0129 0.0518 -0.8177 1.0244 -1.7865
0.7507 -0.3164 3.2255 -1.1082 1.1453 2.5409 2.9214 -1.2027 -0.5271 -0.6540 1.1739 -2.9918 -2.7959 0.1168 -2.0703 1.1920 -2.3772 0.4491 -1.6104 1.8605 -0.8582 0.7589 0.7231 0.9852 -0.4644 -0.4487 -0.8272 -0.1095 0.1195 2.0656 0.8357 -0.0983 -0.2859 1.6296 -1.3581 -0.0746 -1.3459 0.6624 -1.6311
0.3388 0.5832 3.2064 0.8215 2.3889 1.6014 1.8521 -2.4247 -0.3778 -2.1297 1.2340 -0.5381 -0.0407 2.2385 -1.6365 -0.1045 -3.2243 0.5341 -1.5985 0.8466 -2.8812 1.0173 0.0360 0.8922 -0.0979 -0.4343 -1.2365 0.2486 1.0027 1.7609 0.0670 -0.8692 0.1396 0.5763 -2.2880 0.1213 -0.9504 0.9106 -1.5858
0.9599 0.1417 3.2919 0.4275 2.2710 2.1681 1.5952 -1.6574 -1.3092 -2.1382 0.7756 -2.7068 -1.5579 2.0832 -0.5853 0.8387 -3.1421 0.2802 0.1675 1.2058 -2.0670 0.8085 0.2393 0.8277 -1.0501 -0.5762 -0.6441 0.2463 0.7739 2.1225 -0.0263 -0.9144 0.3245 0.8287 -2.0224 -0.2265 -1.0999 0.8222 -1.4759
-0.4002 -0.4391 3.1137 -0.2595 1.9147 2.4009 1.2615 -2.9233 0.4002 -1.5456 1.1137 -3.0136 -2.3607 0.4821 -0.6719 2.5073 -1.5813 -1.0012 -0.8151 2.3289 -1.0382 0.8419 0.1647 1.0535 0.2386 0.0012 -1.3042 -0.3489 0.4872 1.9257 0.4255 -0.7539 -0.0756 1.5148 -1.7661 -0.3042 -1.0595 0.9712 -1.4851
-0.1534 -0.1501 3.2840 -0.1552 2.0660 2.2032 2.6772 -1.4209 -0.5964 -1.7119 0.8509 -2.9564 -2.3810 0.4390 -0.5192 1.0798 -3.0450 -0.2632 -0.9250 2.2856 -1.1570 0.9173 0.1544 1.0748 0.1983 -0.0224 -1.2563 -0.2257 0.5784 1.9661 0.4180 -0.7579 -0.0233 1.4054 -1.8604 -0.3058 -1.1438 0.8825 -1.4504

>  <OB_ATOM_TYPES> (2tmnA1)
C.3 C.3 N.am O.3 O.3 O.2 O.2 C.3 N.3 C.3 C.3 C.2 P.3

>  <ENSEMBLE_RMSD> (2tmnA1)
0.680 0.980 0.994 1.067 1.173 1.176 1.188 1.258 1.270 1.276 1.277 1.308 1.312 1.315 1.355 1.395 1.402 1.407 1.420 1.550 1.552 1.561 1.562 1.595 1.595 1.606 1.621 1.624 1.628 1.629 1.635 1.652 1.668 1.673 1.698 1.707 1.746 1.780 1.796 1.803 1.807 1.816 1.820 1.834 1.871 1.906 1.917 1.960 2.010 2.155

$$$$
