
 OpenBabel03071213D

  9  8  0  0  0  0  0  0  0  0999 V2000
   90.7130   42.9090   51.7250 O   0  0  0  0  0
   94.7130   41.9010   48.3330 O   0  0  0  0  0
   93.8770   44.2520   47.5700 O   0  0  0  0  0
   89.8010   43.5800   49.6670 O   0  0  0  0  0
   93.1120   42.2370   46.3890 O   0  0  0  0  0
   92.1480   42.7410   49.8570 C   0  0  0  0  0
   92.1590   42.7410   48.4850 O   0  0  0  0  0
   90.7180   43.0770   50.3910 C   0  0  0  0  0
   93.6280   42.7410   47.7230 P   0  0  0  0  0
  1  8  1  0  0  0
  2  9  1  0  0  0
  3  9  1  0  0  0
  4  8  2  0  0  0
  5  9  2  0  0  0
  6  7  1  0  0  0
  6  8  1  0  0  0
  7  9  1  0  0  0
M  END
>  <MOLID> (2ypiA1)
2ypiA1

>  <SMILES_CANONICAL> (2ypiA1)
OC(=O)COP(=O)(O)O	

>  <FINGERPRINT> (2ypiA1)
0000000000000000000000000000000000000000000000000000000000000000000000000000000000000000000000000000000000000000000000000000000000000000000000000000000000000100000000000000000000000000000000000000000000000000010000000000000000000000000000000000000000000000000000000000000000000000000000000000000000000000000000000000000000000000000000000000000000000000010000000000000001000000000000000000000010000000100000000000000010000000000000100000000000100000000000000000000000000000000000000000000000001000000010000000100000000000000010000000000000100000000000000000000000000000000000000000000000000000000000000000000000000000000000000100000000000010000000000000000000000000000000000000010000000000000010100000000000000100000000000000000000000000000000000000000000000000000000000000000000000000000000000000000000000000000000000000000000000000000000100000000000000000000000000000000000000001000000000000000000000000000000000000000000000000000000000000000000000010000000000000000000000000000000000000000000000000000000001000000000000000

>  <MACCS166> (2ypiA1)
000000000000000000000000000010000000000000100001000000000000000000000001000000000000000001000000000001010100000100000000001101000111000101110000010100001110101000010000

>  <OB_MW> (2ypiA1)
155.982

>  <OB_logP> (2ypiA1)
-0.8197

>  <OB_PSA> (2ypiA1)
113.87

>  <OB_MR> (2ypiA1)
25.5719

>  <OB_ATOMIC_CHARGES> (2ypiA1)
-0.2428285866 -0.1145254957 -0.1145254957 -0.2428285866 -0.222372616 0.2668500869 -0.2579114271 0.395025305 0.5331168159

>  <MCT_HBD> (2ypiA1)
3

>  <MCT_HBA> (2ypiA1)
6

>  <ENSEMBLE_TOTAL> (2ypiA1)
8

>  <ENSEMBLE_COORDS> (2ypiA1)
-1.6058 0.0002 2.8206 2.3942 -1.0078 -0.5714 1.5582 1.3432 -1.3344 -2.5178 0.6712 0.7626 0.7932 -0.6718 -2.5154 -0.1708 -0.1678 0.9526 -0.1598 -0.1678 -0.4194 -1.6008 0.1682 1.4866 1.3092 -0.1678 -1.1814
-2.0253 -0.4166 2.4477 2.3339 -1.0174 -0.7542 1.6734 1.1739 -2.0136 -2.1788 0.5989 0.4125 0.0852 -0.7207 -1.7792 -0.0534 -0.2677 1.2061 0.5530 0.6140 0.2808 -1.5189 0.0448 1.2779 1.1308 -0.0092 -1.0780
-1.7207 0.9767 1.9728 1.8482 -1.3664 -1.0201 2.0968 1.1802 -1.5519 -2.3629 -0.6484 0.5057 -0.0678 -0.0014 -1.8369 -0.0718 -0.5245 1.2429 0.6767 0.4258 0.5054 -1.5032 -0.0950 1.1744 1.1046 0.0528 -0.9922
-2.4852 -0.4552 1.9765 2.7708 -0.3995 -0.7709 0.9877 1.3039 -1.6335 -1.1024 1.3552 1.8508 0.8152 -1.1345 -2.1113 -1.0493 -0.3497 0.1390 0.3623 -0.4283 0.2395 -1.5147 0.2960 1.4040 1.2156 -0.1880 -1.0942
-0.3669 0.4890 2.1759 1.4555 -1.4058 -0.0907 1.7456 1.1603 -0.5185 -2.2185 -0.6560 1.4910 1.3986 -0.4483 -2.3801 -1.1215 0.8986 0.0026 -0.5826 -0.0055 -0.9440 -1.3198 0.1425 1.2781 1.0096 -0.1747 -1.0143
-1.1752 -0.6648 2.1734 2.0884 -0.3254 0.1494 0.7230 1.3168 -1.3617 -1.0881 1.5353 1.5800 1.4872 -0.9023 -2.1861 -1.4530 -0.1492 -0.1059 -0.3592 -0.9416 -0.5229 -1.2107 0.3559 1.2845 0.9876 -0.2246 -1.0105
-2.2772 1.2893 1.3681 2.5669 -0.9737 -0.9066 1.4117 1.3647 -0.7312 -1.0421 -0.3246 2.4038 0.7004 -0.3280 -2.4145 -1.1858 -0.2408 -0.0150 0.1108 -0.8059 -0.0348 -1.4623 0.2065 1.3874 1.1776 -0.1876 -1.0572
-1.9910 -1.0499 1.7416 1.9423 -0.1517 0.2731 1.8407 0.7459 -2.1752 -0.4998 0.6389 2.0934 0.6161 -1.3040 -1.4901 -1.4155 0.2343 -0.1196 -0.2785 0.8840 -0.6515 -1.2245 -0.0034 1.3495 1.0100 0.0060 -1.0213

>  <OB_ATOM_TYPES> (2ypiA1)
O.co2 O.3 O.3 O.co2 O.2 C.3 O.3 C.2 P.3

>  <ENSEMBLE_RMSD> (2ypiA1)
0.000 0.679 0.977 0.999 1.089 1.091 1.221 1.371

$$$$
