
 OpenBabel03071213D

 20 21  0  0  0  0  0  0  0  0999 V2000
    5.3970   -3.0840   -6.1700 C   0  0  0  0  0
    4.9700    2.4780   -4.0720 C   0  0  0  0  0
   -0.5870   -1.4440   -4.7290 O   0  0  0  0  0
   11.1610    0.9440   -6.8290 O   0  0  0  0  0
    5.8180   -2.0660   -5.1530 C   0  0  0  0  0
    4.8990    1.7680   -5.4010 C   0  0  0  0  0
    1.5760   -1.1710   -3.6570 C   0  0  0  0  0
    1.3510   -1.1440   -6.0710 C   0  0  0  0  0
    8.8860    0.4380   -7.4820 C   0  0  0  0  0
    9.4220    1.0690   -5.2040 C   0  0  0  0  0
    2.9720   -0.9970   -3.7920 C   0  0  0  0  0
    2.7290   -0.9730   -6.1850 C   0  0  0  0  0
    7.5360    0.3040   -7.1250 C   0  0  0  0  0
    8.0630    0.9280   -4.8680 C   0  0  0  0  0
    0.7810   -1.2440   -4.8000 C   0  0  0  0  0
    9.8190    0.8170   -6.5220 C   0  0  0  0  0
    3.5590   -0.8980   -5.0640 C   0  0  0  0  0
    7.1080    0.5490   -5.8150 C   0  0  0  0  0
    5.0590   -0.7450   -5.2310 C   0  0  0  0  0
    5.6330    0.4260   -5.4430 C   0  0  0  0  0
  1  5  1  0  0  0
  2  6  1  0  0  0
  3 15  1  0  0  0
  4 16  1  0  0  0
  5 19  1  0  0  0
  6 20  1  0  0  0
  7 11  2  0  0  0
  7 15  1  0  0  0
  8 12  1  0  0  0
  8 15  2  0  0  0
  9 13  1  0  0  0
  9 16  2  0  0  0
 10 14  2  0  0  0
 10 16  1  0  0  0
 11 17  1  0  0  0
 12 17  2  0  0  0
 13 18  2  0  0  0
 14 18  1  0  0  0
 17 19  1  0  0  0
 18 20  1  0  0  0
 19 20  2  0  0  0
M  END
>  <MOLID> (3erdA1)
3erdA1

>  <SMILES_CANONICAL> (3erdA1)
CC/C(=C(\c1ccc(cc1)O)/CC)/c1ccc(cc1)O	

>  <FINGERPRINT> (3erdA1)
0000000000000000000000000000000000000000000000000000000000001000001000000000000000000011000000000000000000000001000000100000000000000000000000000000000000000000000000000000000000000000000000001000001000000000000000001000000000000000000000000000010000000010000000000000000000001000000000000000000000011000000010000100000000001000000100000000000100000000010000000000000010000000000000000000000000000000000000000000001000000000000000000000000000000000000000000000000000000000000000100000000000000000000000000000100000000000000000000000010000000000000000100000000000000000000000000000000000000000000000000000000000000000000000100000000000000001000000000000000000000001000000000001100000000000000000000000000000000000000000001000000000000001000000000100000000000000000100000000000100000000000000000000000010000000000000000000000000000000000000000101001000100000000000000100000000000000000000000000000000000000010000000000000000000000000000000000001000000000000000100000010000000000000000000000000000000000000000000000010000000000

>  <MACCS166> (3erdA1)
000000000000000000000000000000000000000000000000010000000000000000000000000100000000000000000000001000000001000011000000000010101010000000111010110010010010101100111000

>  <OB_MW> (3erdA1)
268.146

>  <OB_logP> (3erdA1)
4.8286

>  <OB_PSA> (3erdA1)
40.46

>  <OB_MR> (3erdA1)
85.086

>  <OB_ATOMIC_CHARGES> (3erdA1)
0.0050112892 0.0050112892 -0.2865702218 -0.2865702218 0.0260448819 0.0260448819 0.042018044 0.042018044 0.042018044 0.042018044 0.0029591747 0.0029591747 0.0029591747 0.0029591747 0.1957449856 0.1957449856 -0.0040609804 -0.0040609804 -0.0261243919 -0.0261243919

>  <MCT_HBD> (3erdA1)
2

>  <MCT_HBA> (3erdA1)
2

>  <ENSEMBLE_TOTAL> (3erdA1)
14

>  <ENSEMBLE_COORDS> (3erdA1)
0.0894 -2.8818 -0.6894 -0.3376 2.6803 1.4086 -5.8946 -1.2417 0.7517 5.8534 1.1462 -1.3483 0.5104 -1.8638 0.3276 -0.4086 1.9703 0.0796 -3.7316 -0.9688 1.8236 -3.9566 -0.9418 -0.5904 3.5784 0.6403 -2.0013 4.1144 1.2712 0.2766 -2.3356 -0.7948 1.6886 -2.5786 -0.7708 -0.7044 2.2284 0.5063 -1.6443 2.7554 1.1302 0.6126 -4.5266 -1.0417 0.6807 4.5114 1.0192 -1.0413 -1.7486 -0.6958 0.4167 1.8004 0.7513 -0.3344 -0.2486 -0.5428 0.2496 0.3254 0.6283 0.0376
0.8476 -2.7465 0.4242 -0.8525 2.7011 -0.0883 -5.8361 -1.0730 0.9701 5.7430 1.0747 -1.4049 0.2954 -1.8035 -0.6198 -0.2130 1.7506 0.8969 -3.5963 -1.2168 1.7880 -4.0379 -0.5890 -0.5156 3.4210 1.1041 -1.9376 4.1539 0.7600 0.3509 -2.2695 -1.1103 1.5914 -2.6062 -0.4762 -0.7185 2.0514 0.9777 -1.4771 2.8814 0.6256 0.7669 -4.5020 -0.9444 0.6923 4.4232 0.9951 -1.0517 -1.7354 -0.7162 0.2869 1.7681 0.7205 -0.1800 -0.3112 -0.5893 0.0147 0.3753 0.5560 0.2114
0.4828 -2.2562 -1.5224 -1.0189 2.4307 -0.8658 -5.7888 -1.0416 1.2211 5.8223 1.0129 -1.0862 0.4454 -1.8976 -0.0533 -0.3705 1.8897 0.3889 -3.5605 -0.7984 2.0503 -3.9791 -1.0588 -0.3272 3.5453 1.1934 -1.7631 4.1055 0.6120 0.5260 -2.2360 -0.6994 1.8337 -2.5519 -0.9392 -0.5522 2.1436 1.0773 -1.4094 2.8027 0.5167 0.8487 -4.4532 -0.9832 0.9259 4.4793 0.9606 -0.8280 -1.6923 -0.7555 0.4743 1.7606 0.7431 -0.1566 -0.2758 -0.6035 0.1725 0.3394 0.5969 0.1227
0.1517 -2.6604 -1.2941 -0.4694 2.2905 1.5364 -5.8396 -0.9976 1.0147 5.8037 1.3232 -1.2994 0.3824 -2.0049 0.0503 -0.3600 1.8213 0.1016 -4.0189 -0.7178 -0.5032 -3.6161 -1.0079 1.8733 3.7622 0.1409 -1.6404 3.9203 1.8505 0.0710 -2.6976 -0.6432 -0.7431 -2.1916 -0.9222 1.6063 2.3656 -0.0279 -1.2862 2.6420 1.6395 0.4315 -4.4833 -0.9074 0.8537 4.4946 1.0626 -0.9967 -1.7272 -0.7428 0.3502 1.7990 0.6593 -0.2677 -0.2865 -0.6664 0.1304 0.3685 0.5105 0.0115
0.8034 -2.5673 0.9509 -0.0741 2.4469 1.5337 -5.8731 -1.1404 0.8961 5.7481 1.2016 -1.3580 0.3274 -1.9015 -0.3199 -0.3888 1.8948 0.1631 -4.0765 -0.7744 -0.6361 -3.6426 -1.0845 1.7324 3.4572 1.2949 -2.0092 4.0750 0.6037 0.2349 -2.7622 -0.6326 -0.8858 -2.2268 -0.9267 1.4542 2.0658 1.1091 -1.6429 2.7821 0.4521 0.5724 -4.5216 -1.0116 0.7207 4.4132 1.0446 -1.1010 -1.7797 -0.7083 0.1978 1.7165 0.7078 -0.4000 -0.3457 -0.5953 -0.0308 0.3025 0.5871 -0.0728
0.2136 -2.5699 -1.2201 -0.7480 2.4473 -1.0533 -5.8242 -1.1315 1.1377 5.8275 1.2895 -1.1375 0.3824 -1.9554 0.1520 -0.3460 1.8686 0.2829 -3.6002 -1.1132 2.0097 -4.0100 -0.7177 -0.3503 3.9348 1.8285 0.2093 3.7898 0.0948 -1.4786 -2.2734 -0.9803 1.8295 -2.5772 -0.5918 -0.5377 2.5416 1.5778 0.5318 2.4835 -0.0822 -1.2145 -4.4896 -0.9762 0.8762 4.5267 1.1053 -0.7539 -1.7202 -0.7061 0.5017 1.8049 0.6725 -0.1537 -0.2869 -0.6176 0.2423 0.3710 0.5576 0.1265
-0.2612 -3.7037 1.6101 2.5433 -0.4677 3.0124 -4.6648 0.7617 -1.4006 2.6621 3.1691 -2.8007 -0.3509 -2.3147 2.1985 2.3159 -1.2913 1.7667 -3.2149 0.7472 0.4955 -2.8400 -0.7713 -1.3613 3.0394 1.0533 -1.7678 1.1383 2.4137 -1.1264 -2.1309 0.2724 1.1343 -1.6686 -1.2752 -0.6675 2.6001 0.0560 -0.8090 0.7839 1.5147 -0.1919 -3.5685 0.2057 -0.7984 2.3195 2.1750 -1.9247 -1.2933 -0.7656 0.5261 1.5144 0.2526 -0.0248 -0.0825 -1.2646 1.1636 1.1589 -0.7673 0.9657
-2.8333 2.3578 -1.3785 0.6418 3.7984 1.0787 -2.7391 -4.1654 0.9921 4.7140 -1.4970 -0.7633 -2.2957 2.1515 0.0190 0.3513 3.1595 -0.2604 -3.1948 -1.8247 1.1223 -1.1405 -2.6263 0.1213 2.8839 -0.3075 -1.7178 3.2668 -0.2558 0.6787 -2.8191 -0.5488 0.9224 -0.7799 -1.2456 -0.1355 1.7102 0.5193 -1.5096 2.1704 0.5017 0.8649 -2.3142 -2.8947 0.7122 3.6161 -0.6861 -0.6588 -1.5400 -0.2068 0.2779 1.3300 0.8982 -0.2676 -1.1400 1.1887 0.0226 0.1122 1.6836 -0.1206
-0.4324 -2.4561 3.1688 1.9234 1.2376 3.3099 -4.2633 -0.7378 -2.3653 2.9362 1.8553 -3.5035 -0.7486 -0.9927 2.9555 1.9882 -0.0434 2.5088 -3.1225 0.5014 -0.6703 -2.5032 -1.7967 -1.1555 1.8763 2.2720 -1.4089 2.5510 0.0203 -2.0230 -2.1802 0.5795 0.2860 -1.4901 -1.7015 -0.1213 1.3765 1.7384 -0.1558 2.0953 -0.4612 -0.8528 -3.2803 -0.7326 -1.4117 2.4362 1.4373 -2.2995 -1.3141 -0.5618 0.5826 1.4691 0.4213 0.1324 -0.2832 -0.5248 1.6103 0.9658 -0.0544 1.4133
-2.3437 1.9932 2.5609 0.9299 3.2592 2.1548 -2.7612 -4.0173 -0.8127 4.3149 -1.4499 -1.7630 -2.1753 2.0938 1.0639 0.5070 3.1121 0.7100 -1.1695 -2.5953 0.2583 -3.1369 -1.6639 -0.8104 2.4347 -0.0231 -2.0934 3.2989 -0.4244 0.1390 -0.7654 -1.3685 0.6329 -2.6519 -0.3416 -0.4614 1.3908 0.7945 -1.5035 2.3199 0.3230 0.6795 -2.4051 -2.7386 -0.4791 3.3377 -0.6135 -1.2949 -1.5042 -0.1654 0.2325 1.2904 0.9393 -0.1631 -1.0790 1.1976 0.5641 0.1681 1.6888 0.3855
-2.8658 2.7478 0.7211 0.4969 3.9918 0.2651 -2.5098 -4.0644 -0.7084 4.2552 -1.3786 -1.9149 -2.0389 1.9012 1.6619 0.6945 2.8816 1.2713 -1.7526 -2.5964 1.0148 -2.3058 -1.7394 -1.1887 2.4976 0.2288 -1.9862 3.0986 -0.8457 0.1058 -1.3961 -1.3681 1.4306 -1.9292 -0.4155 -0.7287 1.4779 0.9715 -1.2689 2.1557 -0.1485 0.7648 -2.2099 -2.7795 -0.3459 3.2698 -0.6410 -1.3164 -1.4608 -0.2209 0.5237 1.2933 0.8033 0.0599 -1.0137 1.1088 0.9135 0.2432 1.5632 0.7254
-1.0712 -0.9192 3.7704 2.3590 0.0609 3.2331 -3.7798 -1.7892 -2.5118 3.2246 0.7883 -3.6016 -1.2242 0.3505 2.9659 1.5630 1.1590 2.5634 -2.2979 -2.1911 -0.6808 -2.9523 0.0706 -1.2744 2.6153 -0.4348 -1.6487 2.0362 1.9132 -1.8619 -1.5237 -1.7295 0.3175 -2.1199 0.5603 -0.1908 1.9712 -0.4376 -0.3482 1.4332 1.9003 -0.6598 -3.0261 -1.2500 -1.5044 2.6416 0.6994 -2.3663 -1.4085 -0.2922 0.5792 1.3863 0.6765 0.1451 -0.5541 0.2423 1.6310 0.7275 0.6222 1.4434
-3.0945 2.5429 -0.3372 0.9179 3.2429 2.1533 -2.5752 -4.1603 -0.1663 4.4590 -1.4530 -1.4764 -2.2371 2.1500 0.8441 0.5128 3.1046 0.7030 -2.1215 -2.3028 1.2640 -2.0163 -2.0616 -1.1488 2.8830 -0.9320 0.2353 2.9585 0.3773 -1.8063 -1.7672 -1.0166 1.4328 -1.6545 -0.6682 -0.9579 1.7930 -0.0890 0.6907 1.9217 1.1274 -1.3924 -2.2330 -2.8379 -0.0754 3.4356 -0.7000 -0.9658 -1.5148 -0.1471 0.2809 1.2895 0.8925 -0.0914 -1.1164 1.2460 0.4344 0.1595 1.6851 0.3794
-3.0254 2.5870 -0.7074 0.5781 3.8661 1.0937 -2.4757 -4.2246 0.4128 4.6094 -1.5650 -0.7600 -2.2964 2.1653 0.5476 0.3374 3.1805 -0.2320 -1.5370 -2.3104 1.4923 -2.4619 -2.1441 -0.7458 3.4417 0.0984 0.4838 2.4770 -0.8245 -1.5422 -1.2194 -1.0031 1.4885 -2.1038 -0.7380 -0.7461 2.2520 0.9150 0.6314 1.3965 -0.0327 -1.4196 -2.1800 -2.8896 0.3310 3.5330 -0.7440 -0.5562 -1.4986 -0.1678 0.3190 1.2491 0.8711 -0.2747 -1.1528 1.2461 0.2440 0.0769 1.7142 -0.0603

>  <OB_ATOM_TYPES> (3erdA1)
C.3 C.3 O.3 O.3 C.3 C.3 C.ar C.ar C.ar C.ar C.ar C.ar C.ar C.ar C.ar C.ar C.ar C.ar C.2 C.2

>  <ENSEMBLE_RMSD> (3erdA1)
0.000 0.625 0.697 1.139 1.209 1.212 2.487 2.580 2.624 2.651 2.694 2.735 2.769 2.820

$$$$
