
 OpenBabel03071213D

 29 31  0  0  0  0  0  0  0  0999 V2000
   30.5740    1.4650   29.5500 C   0  0  0  0  0
   33.3900   -5.1110   18.8630 C   0  0  0  0  0
   35.5060   -5.2910   19.9220 C   0  0  0  0  0
   25.0580   -1.6220   26.7220 O   0  0  0  0  0
   30.7020   -0.0230   29.3720 C   0  0  0  0  0
   32.9000   -3.1830   21.4230 C   0  0  0  0  0
   34.0590   -3.5080   20.5200 C   0  0  0  0  0
   33.2960   -3.5540   22.7400 O   0  0  0  0  0
   35.4510    0.9800   27.7990 C   0  0  0  0  0
   34.5590    1.2350   26.7760 C   0  0  0  0  0
   35.0270    0.2700   28.8970 C   0  0  0  0  0
   33.2410    0.7820   26.8420 C   0  0  0  0  0
   33.7070   -0.1880   28.9760 C   0  0  0  0  0
   27.2150   -2.6130   26.6050 C   0  0  0  0  0
   26.9920   -0.2350   27.1560 C   0  0  0  0  0
   33.1820   -3.1140   25.1170 C   0  0  0  0  0
   31.6010   -2.1350   23.5790 C   0  0  0  0  0
   28.6090   -2.4900   26.6950 C   0  0  0  0  0
   28.3750   -0.1340   27.2390 C   0  0  0  0  0
   32.5290   -2.4960   26.1460 C   0  0  0  0  0
   30.9660   -1.5280   24.6260 C   0  0  0  0  0
   31.3630   -0.3880   28.0590 C   0  0  0  0  0
   30.7080   -1.0570   27.0650 C   0  0  0  0  0
   34.1090   -4.8870   20.1180 N   0  0  0  0  0
   26.4090   -1.4820   26.8350 C   0  0  0  0  0
   32.7250   -2.9440   23.8200 C   0  0  0  0  0
   32.7880    0.0530   27.9620 C   0  0  0  0  0
   29.2100   -1.2330   27.0160 C   0  0  0  0  0
   31.4110   -1.6900   25.9450 C   0  0  0  0  0
  1  5  1  0  0  0
  2 24  1  0  0  0
  3 24  1  0  0  0
  4 25  1  0  0  0
  5 22  1  0  0  0
  6  7  1  0  0  0
  6  8  1  0  0  0
  7 24  1  0  0  0
  8 26  1  0  0  0
  9 10  2  0  0  0
  9 11  1  0  0  0
 10 12  1  0  0  0
 11 13  2  0  0  0
 12 27  2  0  0  0
 13 27  1  0  0  0
 14 18  1  0  0  0
 14 25  2  0  0  0
 15 19  2  0  0  0
 15 25  1  0  0  0
 16 20  2  0  0  0
 16 26  1  0  0  0
 17 21  1  0  0  0
 17 26  2  0  0  0
 18 28  2  0  0  0
 19 28  1  0  0  0
 20 29  1  0  0  0
 21 29  2  0  0  0
 22 23  1  0  0  0
 22 27  1  0  0  0
 23 28  1  0  0  0
 23 29  1  0  0  0
M  END
>  <MOLID> (3ertA1)
3ertA1

>  <SMILES_CANONICAL> (3ertA1)
CC[C@@H]([C@H](c1ccc(cc1)O)c1ccc(cc1)OCCN(C)C)c1ccccc1	

>  <FINGERPRINT> (3ertA1)
0000010000000000001000000000000000000001000000000000000000001000001000000000000000000001000010100000000000000001000001100000001000000000000000000001000010000000000000000000000000000000000000000000001000000100000000000000000000000001000000000000000000000000000000000000000000001000000000000000000000001000000010000100000000001000001100000000000000000000010000000000000010000000000000000000000010000000000000000000001000000000001000000000000000000000000000010000000000010000000000010000000000001000000000000000100000000000000000000000000000000000000000100000000000000000000000000000000000000000000000000000000000000000000000100000000000000001000000000000000000000001000000000000100000010100000000000000000000010010000000000000000000000000000000000100000000000000000100000000000000000000000000000000000010100000000000000000000000000000000000000001001000000000000000000100000000000000000000000000000000000000000000000000001010000000000000000000011000000000000000100000000000000000000000000000000000000000000000000000011100000000

>  <MACCS166> (3ertA1)
000000000000000000000000000000000000000000000000010000000000000000000000010100000000110000001010001000000001101011110100010011100011000001111110111110011010111110111000

>  <OB_MW> (3ertA1)
389.235

>  <OB_logP> (3ertA1)
5.6583

>  <OB_PSA> (3ertA1)
32.7

>  <OB_MR> (3ertA1)
120.635

>  <OB_ATOMIC_CHARGES> (3ertA1)
0.0003661384 0.0897615353 0.0897615353 -0.2865704853 0.0050067616 0.2226475143 0.1201015712 -0.4739582964 -2.00226e-05 -0.0003224019 -0.0003224019 -0.0042563239 -0.0042563239 0.041715757 0.041715757 0.0365863664 0.0365863664 -0.0006649053 -0.0006649053 -0.0008341544 -0.0008341544 0.0304107058 0.0485619407 -0.2671568618 0.195725518 0.1385995866 -0.0218679362 -0.017906813 -0.0179110682

>  <MCT_HBD> (3ertA1)
1

>  <MCT_HBA> (3ertA1)
3

>  <ENSEMBLE_TOTAL> (3ertA1)
50

>  <ENSEMBLE_COORDS> (3ertA1)
-1.6339 3.8045 2.3352 2.7192 -2.8470 -7.2741 3.9661 -3.2917 -5.3646 -5.9677 -0.6463 2.6930 -0.6795 3.4055 1.2333 0.9385 -2.4374 -4.2423 2.0221 -2.0002 -5.2083 1.4927 -2.5496 -2.9318 3.5528 1.8536 3.6627 3.5824 1.7341 2.3233 2.2871 2.0031 4.3565 2.3421 1.7719 1.5698 1.1382 2.0213 3.6595 -4.6232 0.5117 1.1003 -3.5958 -0.7156 2.9326 1.0355 -2.0035 -0.6573 0.3020 -0.5066 -2.4177 -3.2943 0.8950 0.6575 -2.3666 -0.3564 2.5198 0.5101 -1.1965 0.2840 -0.2784 0.3517 -1.4086 -0.1324 2.0349 1.5170 -0.8242 0.8319 0.9483 2.6073 -3.1598 -5.8604 -4.7547 -0.2575 2.1939 0.8875 -1.6687 -2.0666 1.1650 1.9080 2.2095 -2.2082 0.4905 1.3451 -0.1896 0.0189 -0.1096
-1.2493 1.0962 4.6916 2.9447 -2.7929 -7.0951 1.0789 -4.0078 -6.4293 -6.1653 0.6756 0.5682 -0.1084 0.3655 4.0240 2.0492 -2.0502 -3.8060 2.5004 -3.0766 -4.8226 1.9747 -2.6955 -2.5337 2.8905 4.1352 2.2848 1.5970 4.4008 2.5396 3.3292 2.7646 2.0896 0.6406 3.3139 2.6231 2.4428 1.7560 2.1745 -4.3586 -0.4426 1.6473 -3.9514 1.5211 0.2715 0.7490 -2.5985 -0.4907 1.3840 -0.5420 -1.6090 -2.9312 -0.5224 1.8936 -2.6282 1.4479 0.5097 0.1506 -1.9098 0.5001 0.7108 0.1959 -0.5647 0.1191 0.9012 2.6394 -0.6244 0.2764 1.4964 1.8754 -2.8342 -6.1119 -4.8363 0.5389 0.8652 1.3538 -1.8886 -1.6102 1.0404 2.0407 2.4493 -2.0947 0.3869 1.3557 0.1166 -0.4558 0.4496
-1.7938 3.6118 2.6942 2.6613 -4.0937 -5.7411 0.5870 -3.9492 -6.7809 -5.7839 -1.2543 1.6485 -0.7289 3.4196 1.6401 1.7858 -1.4320 -4.4147 1.0244 -2.6423 -4.9067 2.2594 -1.6874 -3.0924 3.3882 1.8435 4.2540 3.4857 2.4195 3.0422 2.1273 1.2679 4.6847 2.3259 2.4761 2.1696 1.0539 1.3181 3.8772 -3.5087 -1.1639 2.3497 -4.3094 0.2871 0.5705 1.5223 -1.5504 -0.8293 0.9171 0.1992 -2.3962 -2.1906 -0.5800 2.1868 -3.0863 0.8304 0.4257 0.8692 -0.9208 0.1658 0.1841 0.8569 -1.3362 -0.1015 2.0650 1.8037 -0.6341 0.9252 0.9885 1.6170 -3.1595 -6.1274 -4.5161 -0.7443 1.5670 1.5143 -0.9881 -2.1717 1.1537 1.9491 2.5706 -1.9811 0.3750 1.2608 0.1578 0.3217 -0.1030
-1.1074 4.2557 1.2096 1.6578 -4.7150 -6.2418 3.6825 -3.5604 -6.1499 -5.7698 -0.9072 2.4057 -1.0530 3.0723 2.1440 1.0446 -2.0900 -4.3059 1.6822 -2.4636 -5.6269 1.6917 -0.9182 -3.8152 3.1226 1.2321 4.4517 3.4188 1.7897 3.2630 1.7380 0.9908 4.8131 2.3571 2.1113 2.3291 0.7527 1.2980 3.9508 -3.4154 -1.1425 2.6803 -4.3184 0.4812 1.1110 1.4407 -1.1294 -1.4365 0.1928 0.5467 -2.6739 -2.0826 -0.6910 2.3272 -3.0796 0.8961 0.7860 0.9236 -0.6957 -0.2734 -0.3622 1.0145 -1.4159 -0.0191 2.0817 1.6606 -0.5581 0.7934 1.0732 2.3987 -3.7208 -5.4859 -4.4809 -0.5700 2.0951 1.0098 -0.5234 -2.6878 1.0734 1.8572 2.6458 -1.9145 0.2981 1.4278 -0.0260 0.4084 -0.2610
-0.4683 -0.3203 4.5600 4.0422 -3.2582 -6.0837 4.1690 -3.8222 -3.8273 -6.2739 1.2465 2.0194 0.3149 -0.7230 3.3315 1.1753 -2.4154 -4.2502 2.6414 -2.2047 -4.5478 0.5366 -1.1492 -4.1022 3.1886 3.4245 2.0988 3.4101 2.2740 1.4378 1.9679 3.6007 2.8640 2.4308 1.2029 1.4970 1.0563 2.6145 2.9098 -4.5182 -0.3511 1.8004 -4.0335 2.0313 1.7618 0.1979 0.4860 -2.4020 -0.0943 -1.8644 -1.8809 -3.0996 -0.6070 1.6254 -2.7205 1.7902 1.5960 -0.1333 0.8319 -1.1442 -0.3985 -1.4956 -0.5138 0.2244 0.3583 2.2937 -0.7977 0.2446 1.2034 3.2425 -3.4810 -4.8925 -4.9548 0.9177 1.8607 0.2572 -0.9188 -2.7749 1.2970 1.3665 2.2044 -2.2344 0.4202 1.5127 -0.4250 -0.1990 -0.1575
0.6919 -1.3200 3.7892 3.9014 -3.5131 -6.2445 2.1167 -4.9393 -5.8286 -6.4144 0.8437 1.1111 -0.1558 -0.0703 3.8058 1.2918 -2.4830 -3.9379 2.5737 -3.1815 -4.3479 1.6085 -1.1668 -3.4871 2.9867 3.8286 2.7318 1.6858 4.1540 2.8354 3.3818 2.4485 2.5192 0.6732 3.1178 2.7462 2.4437 1.4898 2.4285 -4.4926 -0.4318 1.7193 -4.2563 1.8057 0.7951 0.8030 0.5492 -2.0433 0.6038 -1.7716 -1.3701 -3.0435 -0.5169 1.7962 -2.9160 1.7260 0.8767 0.2536 0.9617 -0.8852 -0.0010 -1.3304 -0.1315 0.0662 0.7190 2.5472 -0.8013 0.4811 1.3465 2.5331 -3.5494 -5.7545 -5.0613 0.6851 1.2347 0.9481 -0.8748 -2.3161 1.0340 1.8350 2.5580 -2.2811 0.5224 1.4015 -0.1735 -0.0184 0.1041
-1.4602 3.9656 2.3435 1.0599 -4.3287 -3.6817 1.3773 -4.2747 -5.9919 -5.7627 -1.4864 1.5611 -0.4773 3.2442 1.4522 2.4013 -1.4660 -4.0087 1.3820 -2.2796 -4.7754 1.9915 -0.1050 -3.9262 3.5138 1.0534 3.9205 3.5159 1.7940 2.7981 2.2581 0.5817 4.4750 2.2639 2.1068 2.1338 1.0971 0.8790 3.8649 -3.4104 -1.6871 1.8948 -4.3500 0.3244 0.9040 1.9190 -0.3241 -1.5087 0.1632 0.8255 -2.7245 -2.0911 -1.0986 1.7557 -3.1254 0.8684 0.7816 1.2795 -0.1263 -0.3434 -0.4901 1.0976 -1.4554 -0.2307 1.8529 1.9855 -0.6130 0.7474 1.0261 1.8033 -3.6709 -4.7428 -4.4867 -0.9982 1.4782 1.2925 0.0958 -2.7549 1.0955 1.6621 2.6370 -1.9475 0.1248 1.2096 0.0312 0.6219 -0.3083
0.7570 -1.4127 3.7529 3.8415 -3.2969 -6.3746 2.1205 -4.7911 -5.9280 -6.4089 0.7804 1.2607 -0.0971 -0.1700 3.8257 1.2601 -2.3887 -3.9848 2.5543 -3.0346 -4.4385 1.5411 -1.0664 -3.5272 3.0469 3.7420 2.5781 3.3502 2.5393 2.0590 1.7281 3.9909 3.1309 2.3518 1.4867 2.0593 0.7996 3.0180 3.1223 -4.4713 -0.5001 1.8025 -4.2613 1.7617 0.9320 0.7153 0.6037 -2.0412 0.6171 -1.7306 -1.3910 -3.0209 -0.5803 1.8518 -2.9194 1.6867 0.9881 0.1808 0.9830 -0.8647 0.0299 -1.3256 -0.1313 0.0698 0.6787 2.5965 -0.7934 0.4360 1.3921 2.4892 -3.3880 -5.8479 -5.0532 0.6260 1.3566 0.9043 -0.8110 -2.3350 1.1230 1.7143 2.5624 -2.2713 0.4719 1.4686 -0.1835 -0.0232 0.1248
-1.4455 3.5878 3.0745 2.5080 -2.2492 -6.4306 4.1053 -3.8722 -5.9869 -6.0956 -0.7283 2.2988 -0.6042 3.4264 1.8307 1.5289 -2.7635 -3.5925 2.8957 -2.9516 -4.2175 1.1843 -1.3822 -3.6957 3.6142 0.9940 3.5680 2.4652 0.6259 4.1613 3.5914 1.7246 2.3140 1.1975 0.9632 3.5433 2.4155 2.0347 1.7385 -3.7397 -0.9370 2.6076 -4.6523 0.7637 1.1273 -0.0855 0.3293 -2.6451 0.9285 -1.4107 -1.2912 -2.4050 -0.4680 2.2720 -3.4161 1.1975 0.8226 -0.5763 0.9378 -1.5491 0.3829 -0.7703 -0.1153 -0.1035 2.0148 1.7253 -0.9242 1.0341 0.9397 2.7861 -3.4058 -5.5945 -4.8074 -0.3406 2.0509 0.6674 -0.9105 -2.5157 1.1672 1.6364 2.3779 -2.2450 0.5612 1.4170 -0.3378 0.3585 -0.2352
-0.0362 -0.9921 4.3063 2.4754 -4.4130 -6.9367 4.2954 -3.9764 -5.5615 -6.0761 1.3704 1.7517 0.8459 -0.7913 3.0967 1.5630 -2.6723 -4.0179 2.3306 -2.7391 -5.3203 0.9523 -1.3814 -3.9409 2.2707 4.1786 3.2086 2.8148 3.3882 2.2657 1.0738 3.7550 3.9126 2.2036 2.1089 1.9507 0.5065 2.5727 3.6196 -4.3205 -0.2411 1.6888 -3.8249 2.1348 1.5379 0.5464 0.3549 -2.3558 0.2460 -1.9615 -1.7046 -2.8975 -0.5094 1.5825 -2.5080 1.8811 1.4337 0.1863 0.7766 -1.1284 -0.1173 -1.5091 -0.3793 0.4053 0.4359 2.3524 -0.5728 0.3138 1.2239 2.8448 -4.0743 -5.5718 -4.7532 1.0303 1.6662 0.6240 -1.0712 -2.6427 1.0904 1.7179 2.5981 -2.0219 0.5079 1.4610 -0.1467 -0.1948 -0.0964
-1.3454 0.4220 4.5004 -0.1625 -2.5474 -4.9493 0.8696 -3.8692 -6.5616 -5.9384 0.6113 -0.0458 -0.1529 -0.1400 3.7627 2.4376 -3.0045 -3.3734 2.1492 -2.9390 -4.8545 2.7898 -1.6985 -2.9190 2.7500 4.0330 3.0771 1.4211 4.2053 3.1917 3.2861 2.7282 2.7323 0.5246 3.0848 2.9801 2.4557 1.6878 2.5379 -4.1560 -0.6074 0.9665 -3.7577 1.5824 -0.0106 1.7277 0.1295 -1.8133 1.4091 -2.1296 -0.9893 -2.7456 -0.6726 1.3105 -2.4553 1.5234 0.3204 0.9821 0.6269 -0.8088 0.5870 -1.5985 0.0752 0.1547 0.6817 2.5435 -0.4604 0.3271 1.2230 0.8659 -3.5561 -5.1430 -4.6288 0.4764 0.3290 1.9178 -1.3085 -1.9291 1.0180 1.8715 2.6725 -1.9254 0.3531 1.0073 0.3825 -0.2730 0.1674
0.7091 -0.3381 4.3759 2.7708 -1.4314 -5.8846 1.1669 -3.0666 -6.2840 -6.2936 0.8681 0.6246 -0.2394 0.7275 3.8817 2.7633 -2.7273 -3.0163 2.5715 -3.2567 -4.4226 1.7859 -3.3033 -2.1529 2.8000 4.1599 1.5950 1.4921 4.4591 1.6894 3.2514 2.7878 1.7373 0.5284 3.4055 1.9445 2.3583 1.8104 1.9721 -4.0878 1.6099 0.1025 -4.4413 -0.2575 1.6201 0.6507 -2.8591 -0.1033 1.1939 -1.0250 -1.5945 -2.6558 1.4628 0.3061 -3.1156 -0.3894 1.8065 0.0477 -2.0174 0.7574 0.5547 -0.1191 -0.6669 0.0239 1.0328 2.4357 -0.7443 0.2804 1.3917 1.8177 -2.3092 -5.2284 -4.9329 0.7829 0.7409 1.2791 -2.3403 -1.3102 0.9418 2.1331 2.0856 -2.1850 0.5151 1.1409 -0.0116 -0.5951 0.4555
-0.5965 0.6838 4.5238 3.9543 -2.3632 -2.9422 4.7593 -3.1352 -4.9836 -6.3045 1.2654 1.9801 0.2437 -0.0908 3.5366 1.3358 -1.9121 -4.4352 2.4639 -2.8854 -4.6877 0.3696 -2.5529 -3.6013 3.1772 3.5201 1.3857 1.9245 3.9092 1.6826 3.5026 2.1074 1.2985 0.8994 2.9137 1.9266 2.5512 1.1832 1.5213 -4.2149 1.9188 1.0375 -4.4125 -0.1594 2.2846 -0.2362 -2.5968 -1.2904 0.2445 -0.4804 -2.3759 -2.8036 1.6318 0.8444 -3.1064 -0.4231 2.1004 -0.5261 -1.9687 -0.1351 -0.0558 0.1931 -1.1335 0.2059 0.5636 2.1853 -0.8419 0.1291 1.2053 3.7495 -2.2828 -4.3791 -4.9744 1.0565 1.7328 0.1973 -1.8246 -2.4468 1.1980 1.6040 1.8566 -2.2633 0.5137 1.3679 -0.4404 -0.5178 -0.0592
0.6775 -0.7524 4.2677 0.3416 -1.6500 -5.6733 -0.2671 -3.8304 -5.1236 -5.8755 0.3108 -0.3333 -0.2966 0.3265 3.8572 2.6414 -2.0600 -3.7477 1.8588 -3.0669 -4.5605 2.7756 -2.5123 -2.4043 2.5008 4.4161 2.5123 1.1751 4.5400 2.3195 3.0904 3.0991 2.6655 0.3280 3.3592 2.3016 2.3108 2.0046 2.6237 -4.1600 -0.7104 0.9696 -3.6993 1.2966 -0.3214 1.5910 -2.4122 -0.3448 1.6956 -0.4445 -1.7565 -2.7759 -0.7022 1.4116 -2.4260 1.3164 0.1129 0.8433 -1.7553 0.5604 0.8483 0.2464 -0.8058 0.0837 0.8885 2.5172 -0.4835 0.2467 1.2871 0.4626 -2.6700 -4.6453 -4.5887 0.2460 0.1295 1.9916 -1.7471 -1.5732 0.8709 2.1366 2.4535 -1.9359 0.2672 0.9982 0.4216 -0.3871 0.3024
1.1039 -1.2752 3.6103 3.7178 -1.5324 -2.9984 4.7279 -2.5691 -4.8163 -6.3822 1.1859 1.7499 0.2171 -0.0540 3.6144 1.1259 -1.8655 -4.4347 2.4122 -2.6372 -4.6204 0.3020 -2.5765 -3.5100 3.1561 3.5189 1.2989 3.3530 2.2407 0.9296 1.9463 3.8903 2.0108 2.3575 1.2341 1.2496 1.0184 2.9598 2.2973 -4.5154 -0.1914 2.2904 -4.2142 1.8300 0.9736 -0.2251 -2.6025 -1.1815 0.1252 -0.4868 -2.3164 -3.0892 -0.4336 2.1806 -2.8895 1.6067 0.8823 -0.5054 -1.9671 -0.0274 -0.1627 0.1939 -1.0762 0.1812 0.6001 2.2626 -0.8642 0.1578 1.2821 3.5709 -1.7825 -4.4232 -5.0452 0.8946 1.7051 0.1295 -1.8330 -2.3655 1.2284 1.5769 1.8987 -2.3016 0.4296 1.5107 -0.4786 -0.5126 0.0232
-0.7841 -0.5567 4.3970 3.3670 -4.1514 -6.0631 2.1389 -5.0215 -4.2877 -6.2184 0.7316 1.6782 0.2956 -0.7154 3.3508 1.1823 -1.8169 -4.5852 2.4040 -2.7100 -4.5094 1.5189 -0.5705 -3.9727 2.9857 3.6829 2.7743 3.3668 2.5998 2.0733 1.6701 3.7269 3.3859 2.4639 1.4707 1.9334 0.8301 2.6868 3.2488 -4.1264 1.8085 1.3039 -4.2324 -0.5961 1.6504 0.7486 0.9132 -2.2725 0.6491 -1.4811 -1.9140 -2.6847 1.6944 1.1844 -2.8957 -0.6990 1.5344 0.2791 1.1429 -1.0313 0.1157 -1.2368 -0.5926 0.2417 0.4352 2.3868 -0.6266 0.3178 1.1710 2.1809 -3.9359 -5.2525 -4.8579 0.7053 1.5305 0.8980 -0.4536 -2.7504 1.2414 1.5133 2.4957 -2.0897 0.4916 1.2945 -0.0618 0.0242 -0.1622
-0.9218 4.1752 1.6466 3.6106 -2.0993 -6.7458 4.1678 -3.7951 -5.2508 -5.7129 -0.6065 3.1629 0.0288 3.3357 0.8257 1.4762 -2.7477 -3.9066 2.6505 -2.1197 -4.6235 0.3481 -1.8788 -3.9721 3.1959 1.1269 4.1878 3.3808 0.7812 2.9009 1.9422 1.7281 4.6036 2.3339 1.0267 1.9233 0.9657 1.9363 3.7038 -3.3447 -0.8616 3.0482 -4.4803 0.7812 1.6618 -0.5844 -0.0021 -2.8414 0.4619 -1.7718 -1.5561 -2.0873 -0.4491 2.4488 -3.3133 1.1664 1.1150 -0.8768 0.6782 -1.7172 0.1754 -1.0246 -0.3490 0.0780 1.9405 1.3788 -0.8505 0.9279 0.7803 3.0661 -2.9737 -5.7224 -4.4859 -0.2693 2.6587 0.1474 -1.2569 -2.7618 1.1664 1.5762 2.3076 -2.0698 0.5211 1.5140 -0.4681 0.1546 -0.4212
-0.0078 4.1114 0.2446 1.9682 -4.2442 -6.5312 -0.1267 -3.2614 -6.2981 -5.6876 -1.4177 1.8949 -0.7859 3.4183 1.3375 2.0874 -1.6931 -4.2106 1.4744 -3.0139 -4.6156 2.5704 -1.7903 -2.8713 2.8694 2.0708 4.6868 3.1985 2.4012 3.4252 1.5068 1.6815 5.0027 2.1878 2.3805 2.3840 0.5695 1.6620 4.0385 -4.3345 0.0534 0.5926 -3.3717 -1.2080 2.4340 1.7758 -1.5452 -0.6360 1.0661 0.0276 -2.3395 -3.0288 0.6492 0.3632 -2.1653 -0.6538 2.2192 1.0470 -0.9031 0.2963 0.2525 0.6958 -1.3452 -0.1719 2.0919 1.6867 -0.6163 0.8520 0.9704 1.2904 -3.0504 -6.0560 -4.4882 -0.8315 1.5918 1.7511 -1.0880 -2.0174 0.9198 2.0363 2.6778 -1.9862 0.3207 1.1517 0.2358 0.2479 -0.0771
-1.2769 0.4617 4.6088 0.2066 -2.4568 -5.3726 1.4307 -3.7405 -6.8748 -6.0699 0.7166 0.4628 -0.1267 -0.1084 3.8126 2.2444 -3.1381 -3.3268 2.3841 -3.1749 -4.8307 2.6347 -1.8393 -2.8804 2.8219 4.0071 2.7247 3.2714 2.7769 3.0308 1.4347 4.2023 2.3441 2.3687 1.6422 2.9747 0.5953 3.1536 2.3027 -3.9001 1.6726 0.2291 -4.1800 -0.5201 1.2424 1.6361 0.0316 -1.7848 1.2586 -2.2100 -0.9381 -2.4712 1.5567 0.4526 -2.8538 -0.6251 1.4459 0.9175 0.5617 -0.7760 0.4685 -1.6433 0.1307 0.0924 0.7287 2.5847 -0.5155 0.2874 1.2875 1.1368 -3.5706 -5.4618 -4.7103 0.6737 0.6155 1.7792 -1.4138 -1.8919 1.0815 1.8211 2.6245 -1.9649 0.4592 1.0462 0.3064 -0.3121 0.2173
-0.3483 -0.1039 4.7749 1.7948 -3.8679 -6.8445 0.6628 -1.8600 -6.5320 -5.6782 1.2721 0.0868 0.7378 -0.1887 3.7303 2.3670 -2.6421 -3.6760 1.3481 -3.1159 -4.6861 2.1005 -3.2561 -2.4171 1.7235 4.7650 2.7836 0.4964 4.4423 3.2295 2.5728 3.7444 2.1965 0.0299 3.0716 3.1376 2.1392 2.4740 2.1063 -4.1239 -0.0562 1.3094 -3.3486 1.7907 -0.0686 0.8186 -2.9451 -0.4343 1.7237 -1.0126 -1.5870 -2.7431 -0.3263 1.6622 -2.0685 1.5397 0.2649 0.2657 -2.1574 0.5070 1.0938 -0.1630 -0.5987 0.4216 0.7007 2.5623 -0.3263 0.1154 1.4044 1.7448 -2.6784 -6.0128 -4.4034 0.9587 0.4758 1.5455 -2.3485 -1.5449 0.8172 2.1213 2.6003 -1.7511 0.4354 1.1631 0.3877 -0.7091 0.4070
-0.9194 4.1267 0.5070 4.1580 -1.9150 -6.2477 3.3880 -4.0913 -5.9613 -5.5841 -0.2492 3.3174 0.1387 3.1260 0.1085 1.0739 -2.5505 -4.4676 2.5675 -2.3727 -4.6133 0.7884 -3.0597 -3.1674 2.5428 2.0735 4.5832 1.3947 2.7728 4.5432 2.9540 1.2864 3.4349 0.5650 2.7332 3.3543 2.1910 1.2583 2.3276 -4.4321 0.7001 1.4548 -3.2085 -0.4498 3.2121 0.7227 -2.3191 -0.9070 -0.1571 -0.8908 -2.6600 -3.1643 0.9720 0.7964 -2.0383 -0.1973 2.5996 0.3777 -1.4211 0.0339 -0.5027 0.0880 -1.6499 0.1473 1.9538 1.0475 -0.6762 0.7422 0.7344 2.9686 -2.7004 -5.9687 -4.4404 0.0232 2.6159 0.4717 -2.0312 -2.3105 0.9480 2.0123 2.2843 -2.0098 0.5519 1.3501 -0.2653 -0.1725 -0.3517
-0.9413 3.4984 2.8290 4.6475 -2.6086 -3.8171 3.6415 -0.5063 -3.9084 -6.0264 -0.4056 2.8853 -0.3034 3.1898 1.4942 1.2032 -2.8715 -3.9732 2.4683 -2.3847 -4.6422 0.1864 -1.8773 -4.0832 3.9520 0.6083 2.6539 3.7641 1.0044 1.3820 2.8226 0.5254 3.5615 2.4342 1.3685 0.9225 1.5895 0.8446 3.1320 -3.6925 -0.8885 2.7829 -4.6256 0.9798 1.5388 -0.6792 0.0134 -2.9194 0.2256 -1.8542 -1.6634 -2.3847 -0.5519 2.2447 -3.4141 1.2892 1.0440 -0.9580 0.6758 -1.7813 -0.0497 -1.1317 -0.4416 0.0127 1.7225 1.4243 -0.9824 0.8478 0.7184 3.3910 -1.9081 -3.6256 -4.7597 -0.1504 2.4339 -0.0365 -1.2897 -2.8594 1.3833 1.2849 1.7607 -2.2490 0.4903 1.4013 -0.6197 0.0853 -0.4946
0.6820 -0.4906 4.3442 0.6499 -1.9198 -6.2324 -0.3595 -3.0358 -4.4509 -6.0530 0.3366 0.1614 -0.3058 0.5358 3.8463 2.8023 -2.2012 -3.5353 1.9668 -2.9165 -4.5725 2.6196 -2.8138 -2.2600 2.7408 4.2694 1.9710 3.2228 3.0145 1.9276 1.3212 4.4933 2.1772 2.3233 1.8870 2.0940 0.4856 3.4488 2.3169 -3.8634 1.1401 -0.3358 -4.2056 -0.5157 1.4107 1.2469 -2.6555 -0.3165 1.7828 -0.6503 -1.5724 -2.4435 1.1227 -0.0275 -2.8894 -0.5353 1.6870 0.5131 -1.9418 0.5579 0.9593 0.1089 -0.6597 0.0323 0.9917 2.4546 -0.5379 0.2124 1.3048 0.7457 -2.1634 -4.8048 -4.6996 0.3565 0.3653 1.8835 -1.9882 -1.4415 1.0032 2.0903 2.2683 -1.9727 0.3281 0.9539 0.3492 -0.5082 0.3680
1.7352 -0.9364 3.6386 2.5059 -4.3330 -5.7790 0.8309 -3.3284 -7.0374 -6.0159 0.9715 0.7196 0.4632 -0.1353 3.7809 2.2580 -1.9990 -3.8960 1.2581 -2.5430 -4.8930 2.1082 -2.7112 -2.6657 1.7885 4.7495 2.7173 2.5202 3.7849 2.1316 0.4947 4.4323 3.2956 2.0137 2.4257 2.0791 0.0236 3.1738 3.2428 -3.7961 1.7133 0.2688 -4.1850 -0.2830 1.6016 0.8150 -2.6384 -0.6587 1.5953 -0.5737 -1.6651 -2.3689 1.5194 0.4549 -2.8621 -0.4587 1.7723 0.2172 -1.9567 0.3372 0.9296 0.1588 -0.6124 0.2477 0.7649 2.5978 -0.4802 0.2085 1.4112 1.9009 -3.0489 -6.0933 -4.6570 0.8461 0.8265 1.5022 -1.9166 -1.7202 0.8094 2.1297 2.6030 -1.9168 0.4851 1.1905 0.2645 -0.5012 0.3514
1.5841 -0.8691 3.8137 0.9449 -3.7177 -6.7573 1.1712 -1.4896 -6.1370 -5.9278 1.0417 0.3863 0.3617 0.0170 3.8449 2.3986 -2.5843 -3.5656 1.4118 -3.1974 -4.5361 2.2108 -3.1658 -2.2742 1.9010 4.7472 2.4262 2.6248 3.7125 1.9626 0.5722 4.5198 2.9658 2.0759 2.3693 2.0032 0.0614 3.2760 2.9987 -3.6654 1.6748 -0.0180 -4.1827 -0.1837 1.4617 0.8326 -2.8772 -0.3444 1.7316 -0.9337 -1.4840 -2.2556 1.4560 0.2546 -2.8761 -0.3826 1.7125 0.2150 -2.0931 0.5598 1.0416 -0.0913 -0.5324 0.2321 0.8134 2.5778 -0.4592 0.1749 1.4107 1.7109 -2.8199 -5.9077 -4.5803 0.8861 0.5697 1.5892 -2.2726 -1.4317 0.8396 2.1559 2.4916 -1.8733 0.4773 1.0980 0.3096 -0.6438 0.4506
-1.8096 3.7939 1.7359 -0.1727 -2.6938 -5.9376 0.0818 -4.4099 -4.3780 -5.4462 -1.4974 1.5533 -0.5243 3.4576 1.0175 2.3725 -1.6148 -4.4135 1.8675 -2.9823 -4.8107 2.8876 -1.6545 -3.0858 2.7417 1.7590 4.7065 1.4345 1.5312 4.9265 3.2034 2.1251 3.3790 0.4848 1.6606 3.8371 2.3233 2.2426 2.3688 -4.0725 -0.0960 0.1975 -3.1834 -1.1247 2.2132 2.0604 -1.4228 -0.8680 1.3469 0.1413 -2.5791 -2.7828 0.5422 -0.0053 -1.9893 -0.5378 2.0181 1.3072 -0.7960 0.0532 0.4907 0.7815 -1.6002 -0.0075 2.1186 1.4570 -0.4180 0.8891 0.7080 0.4235 -3.0274 -4.6561 -4.2547 -0.8872 1.2680 2.0439 -0.9647 -2.2468 0.9074 2.0120 2.6084 -1.7788 0.3309 0.8685 0.4626 0.3237 -0.3352
1.3699 3.4761 -0.3085 2.7082 -3.1096 -7.5423 2.9227 -4.5518 -5.7361 -5.6564 -0.7091 2.7057 0.1274 3.4200 0.5502 1.1123 -2.3843 -4.3389 2.1963 -2.3479 -5.3974 1.7407 -2.4099 -3.0571 1.8009 2.0732 5.2590 0.5015 2.3934 5.1234 2.6062 1.7611 4.0918 -0.0953 2.4314 3.8028 2.0511 1.7885 2.8680 -4.3934 0.5654 1.1344 -3.2754 -0.7686 2.8332 1.3249 -1.8452 -0.7800 0.4818 -0.4094 -2.5420 -3.0893 0.9939 0.6599 -2.0694 -0.3710 2.3884 0.7992 -1.0434 0.1661 -0.1085 0.4349 -1.5276 0.1021 2.1502 1.3533 -0.6102 0.9433 0.8245 2.0900 -3.4945 -6.2846 -4.4700 -0.2753 2.1795 1.1196 -1.5429 -2.1897 0.6479 2.1400 2.7198 -1.9693 0.5604 1.2703 0.0344 0.1312 -0.2262
0.3774 -1.0865 3.9861 3.4579 -3.5647 -3.4986 4.2179 -3.9683 -5.6589 -5.8942 1.6075 2.0008 1.2103 -0.6633 2.8003 1.3444 -1.8565 -4.7003 2.1375 -2.9598 -5.3615 0.3816 -2.4689 -3.8405 1.9038 4.4069 2.9013 0.8759 3.8975 3.6031 2.5208 3.6339 1.8383 0.3902 2.5669 3.3005 2.0685 2.3992 1.5536 -3.7712 2.1701 1.0762 -4.1110 0.0286 2.1779 -0.1695 -2.5475 -1.5180 0.4271 -0.4324 -2.5499 -2.3890 1.7919 0.8389 -2.8294 -0.3169 1.9592 -0.3909 -1.9386 -0.3371 0.2025 0.2205 -1.2799 0.5536 0.4572 2.0445 -0.5397 0.1344 1.0716 3.4938 -3.0095 -4.8419 -4.5864 1.3183 1.7207 0.2883 -1.7684 -2.6613 0.9618 1.8449 2.3195 -1.9297 0.6019 1.2739 -0.2023 -0.4984 -0.2185
-0.1394 -0.3258 4.6158 2.0730 -3.3848 -7.1917 0.0232 -3.5586 -6.1066 -5.7235 1.2379 0.4502 0.9350 -0.1634 3.5688 2.3340 -2.4986 -3.8300 2.0049 -3.5522 -4.8633 2.2379 -3.0895 -2.5323 1.3707 4.9093 3.0489 0.1222 4.4677 3.2823 2.3928 3.9945 2.5719 -0.1975 3.0706 3.0673 2.0935 2.6999 2.3623 -3.4555 1.8252 0.0146 -3.9894 -0.0697 1.4430 0.9971 -2.8312 -0.5043 1.7416 -0.8687 -1.7216 -2.0469 1.5575 0.2429 -2.6831 -0.3132 1.6537 0.4208 -2.0600 0.4381 1.1060 -0.0406 -0.7218 0.4861 0.7732 2.4832 -0.2581 0.1979 1.3161 1.3421 -2.9558 -6.0109 -4.3771 1.0410 0.5969 1.6503 -2.2110 -1.6506 0.7440 2.2189 2.6202 -1.6721 0.5387 1.0417 0.4675 -0.6089 0.3152
-1.1738 4.1667 1.6279 0.4539 -4.5749 -5.9246 2.7457 -4.3150 -6.2147 -5.4840 -1.2540 1.8533 0.1741 3.5624 1.3172 2.2150 -2.0408 -4.0244 1.4877 -2.6075 -5.2225 1.9687 -0.6352 -3.9598 2.2981 0.9545 5.2413 0.9660 1.1328 5.2894 3.0126 1.1519 3.9923 0.2458 1.5249 4.0932 2.3437 1.5077 2.8803 -3.1259 -1.2546 2.2044 -4.1752 0.4797 0.8624 0.5348 0.8816 -2.7955 1.5954 -0.9398 -1.5958 -1.8406 -0.6281 1.9481 -2.9841 1.0616 0.6347 -0.0312 1.3337 -1.6599 0.9685 -0.4694 -0.3809 0.2071 2.1095 1.6959 -0.4938 1.1306 0.8024 1.6534 -4.0495 -5.2934 -4.2375 -0.7173 1.6754 1.3525 -0.3233 -2.7690 0.9010 1.6959 2.9301 -1.7687 0.4893 1.1980 0.1908 0.6268 -0.4058
1.0190 3.8577 0.2184 0.3833 -3.3215 -6.0241 2.2980 -4.3074 -6.8990 -5.5589 -1.3833 2.1001 -0.0592 3.5298 1.2249 2.1615 -2.3551 -3.7693 2.5083 -2.7376 -5.1903 1.8490 -0.9611 -3.7758 2.2929 1.4307 5.2549 2.9238 1.3866 4.0682 0.8617 1.6631 5.3165 2.1678 1.5782 2.8450 0.1598 1.8408 4.1830 -3.2012 -1.3026 2.4408 -4.2986 0.3104 0.9877 0.3687 0.5751 -2.7117 1.5095 -1.1142 -1.3928 -1.9322 -0.6632 2.1382 -3.1224 0.9041 0.7151 -0.2116 1.0849 -1.6079 0.8764 -0.5763 -0.2091 0.0394 2.1056 1.6948 -0.6320 1.0438 0.8760 1.6914 -3.8420 -5.6625 -4.3275 -0.8290 1.8814 1.2320 -0.5947 -2.6053 0.8393 1.7924 2.8952 -1.8915 0.4023 1.3145 0.0533 0.4824 -0.3069
1.9062 -1.8504 1.8225 3.6719 -4.1381 -4.0526 3.8026 -1.9280 -3.3099 -6.0453 1.3227 2.0997 0.8244 -1.1684 2.6252 0.7287 -2.4499 -4.6681 2.2185 -2.5201 -4.9150 0.3513 -1.0974 -4.4202 2.5436 3.7211 3.0409 2.9958 2.9752 2.0167 1.3569 3.3140 3.7720 2.2977 1.7571 1.6460 0.7125 2.1852 3.4293 -4.2659 -0.2680 2.1071 -3.8741 2.0259 1.4021 0.1833 0.4855 -2.6534 -0.2618 -1.8553 -2.1983 -2.8648 -0.5550 1.8437 -2.5753 1.7610 1.1757 -0.0492 0.8064 -1.3679 -0.4754 -1.5162 -0.8056 0.4414 0.1487 2.0131 -0.6441 0.2012 0.9817 2.8776 -2.9753 -3.7034 -4.7396 0.9697 1.8842 0.1037 -0.9020 -3.0806 1.2074 1.3679 2.3329 -2.0515 0.4179 1.3874 -0.3769 -0.2354 -0.4052
0.8779 -1.9360 2.8623 4.0946 -3.9701 -4.4456 4.1021 -2.1196 -3.0245 -6.2957 1.2626 2.2598 0.1499 -0.6755 3.2600 1.0113 -2.4316 -4.3650 2.4799 -2.2977 -4.6897 0.4362 -1.1359 -4.2221 3.3071 3.2468 2.0325 3.4433 2.1147 1.3191 2.1107 3.4678 2.8252 2.3961 1.1099 1.3509 1.1348 2.5429 2.8436 -4.2332 2.0564 1.3694 -4.4070 -0.2044 2.2479 0.0872 0.5094 -2.5365 -0.1946 -1.8377 -1.9929 -2.8317 1.8035 1.0920 -3.1085 -0.4381 1.9796 -0.2365 0.8642 -1.2793 -0.5007 -1.4589 -0.6292 0.1784 0.3389 2.1521 -0.8716 0.2925 1.0821 3.2353 -3.0597 -3.7111 -4.9771 1.0901 1.9320 0.1449 -0.8975 -2.8987 1.2842 1.3132 2.0823 -2.2844 0.6090 1.3888 -0.5328 -0.1591 -0.2851
-0.3319 4.0437 0.0239 3.6553 -1.5286 -4.3565 4.0718 -2.7491 -6.2929 -5.4906 -0.0082 3.2839 0.6166 2.8769 -0.1106 0.8565 -2.7872 -4.5560 2.2201 -3.2746 -4.9843 0.5900 -3.2718 -3.2407 2.1292 2.0543 4.7806 0.8859 2.5360 4.6066 2.8464 1.4670 3.6624 0.2670 2.4765 3.2978 2.2681 1.3999 2.4499 -4.3089 0.8922 1.4193 -3.1391 -0.3906 3.1211 0.6841 -2.4638 -0.9973 -0.2529 -1.0671 -2.7456 -3.0416 1.0784 0.7342 -1.9689 -0.2239 2.4791 0.4067 -1.5303 -0.0672 -0.5285 -0.0548 -1.7515 0.3246 1.8262 0.9224 -0.5865 0.6818 0.5992 3.0095 -2.1656 -5.4921 -4.3431 0.1914 2.5649 0.3718 -2.2086 -2.3958 0.9281 1.9301 2.2612 -1.9126 0.5500 1.2449 -0.2272 -0.2801 -0.4608
-1.3794 4.1521 1.5654 0.5768 -4.7273 -5.8157 2.8315 -4.3165 -6.2067 -5.2511 -1.5197 2.4265 -0.0273 3.5884 1.1981 2.2162 -2.0162 -4.0700 1.4911 -2.6671 -5.2253 1.8802 -0.6291 -4.0359 2.4640 1.2923 5.0484 3.0563 1.3463 3.8417 1.0302 1.4855 5.1632 2.2633 1.6108 2.6537 0.2949 1.7270 4.0645 -4.2301 0.2014 1.1362 -2.8677 -1.3265 2.4490 0.3768 0.8164 -2.8716 1.6024 -0.8836 -1.6520 -3.0145 0.8725 0.7192 -1.7408 -0.7021 2.0576 -0.1831 1.2665 -1.7320 0.9771 -0.4208 -0.4326 0.0613 2.1523 1.6263 -0.5580 1.1056 0.7518 1.7580 -4.0952 -5.2524 -4.1492 -0.8488 1.9688 1.2783 -0.3265 -2.8356 0.9343 1.7955 2.7595 -1.8169 0.4475 1.1639 0.1255 0.6192 -0.4639
-0.2785 4.2374 0.7327 4.2005 -3.8797 -5.7757 3.6720 -1.6251 -5.9999 -5.6021 -0.2178 3.1386 0.6667 3.1141 0.3805 1.4023 -3.0258 -3.8907 2.0476 -3.1369 -5.2530 0.2900 -2.1350 -3.9811 2.3522 1.2313 4.8903 1.3465 2.1219 4.8300 2.7554 0.4971 3.7040 0.6623 2.3452 3.5732 2.1232 0.7068 2.5354 -3.2566 -0.6266 3.0150 -4.3022 1.0310 1.5746 -0.5513 -0.1648 -2.9226 0.4642 -1.9130 -1.5806 -1.9821 -0.3194 2.3882 -3.1193 1.3179 1.0023 -0.7838 0.5795 -1.8242 0.2319 -1.1064 -0.4029 0.3622 1.8756 1.1762 -0.6805 0.9297 0.6605 3.4568 -2.7930 -5.1630 -4.3615 0.0242 2.6142 0.1344 -1.4450 -2.8008 1.0323 1.6679 2.4710 -1.9118 0.6192 1.4231 -0.3709 0.0898 -0.5155
2.0507 -1.5112 1.9437 3.7871 -3.5785 -6.2896 3.8259 -4.4116 -4.1174 -6.0560 1.2489 2.3579 0.9210 -0.9296 2.7607 1.0390 -2.5765 -4.3599 2.5245 -2.5387 -4.6328 0.5525 -1.2444 -4.2105 2.1133 4.0886 3.3301 2.8159 3.2789 2.5178 0.7942 3.6912 3.7864 2.2510 2.0111 2.0909 0.2775 2.5103 3.4040 -4.0132 2.0353 1.4182 -4.1628 -0.2136 2.3306 0.3313 0.4301 -2.5273 -0.1177 -1.8887 -1.9769 -2.6196 1.7779 1.1101 -2.8685 -0.4485 2.0421 0.0459 0.8123 -1.2679 -0.3994 -1.4813 -0.6168 0.4077 0.3475 2.1561 -0.6479 0.2876 1.0925 2.9556 -3.8344 -5.1270 -4.7432 1.0754 2.0089 0.2886 -0.9798 -2.8859 1.0315 1.6352 2.5193 -2.0615 0.5901 1.4135 -0.3233 -0.1836 -0.2710
-0.3798 -0.0586 4.6027 0.7789 -2.0009 -6.3814 -0.4789 -2.9328 -4.6524 -5.6342 1.0956 0.0587 0.7552 -0.1396 3.6107 2.7544 -2.7296 -3.6370 1.8288 -3.2579 -4.7088 2.4404 -3.3379 -2.3861 1.6443 4.8079 2.5662 0.4091 4.4621 2.9703 2.5462 3.7971 2.0428 -0.0151 3.0767 2.8957 2.1516 2.5133 1.9685 -3.3426 1.6652 -0.2813 -3.9572 -0.1759 1.1827 1.0756 -3.0086 -0.4630 1.9797 -1.0836 -1.6300 -1.9476 1.4046 0.0325 -2.6656 -0.4118 1.4734 0.4598 -2.2092 0.4273 1.2846 -0.2228 -0.6973 0.4686 0.7035 2.4008 -0.2294 0.0555 1.2439 0.7820 -2.2811 -4.9573 -4.2971 0.9037 0.2794 1.8407 -2.4231 -1.5519 0.8189 2.1364 2.4141 -1.6201 0.4139 0.8859 0.5485 -0.7623 0.2907
-0.0584 -1.0093 4.2268 1.2031 -2.8926 -6.6649 2.3643 -4.8915 -6.8941 -5.8254 1.4378 0.8742 1.0034 -0.4921 3.2870 1.6979 -3.3130 -3.6481 2.4723 -3.7357 -4.8773 2.1824 -2.0262 -3.2648 1.3405 4.6024 3.7289 0.2071 4.0089 4.1437 2.2402 3.9113 2.8215 -0.1084 2.6695 3.6915 1.9451 2.6696 2.3972 -3.5829 2.1589 0.5095 -4.0395 -0.0477 1.4249 1.4890 -0.0909 -2.0664 0.9877 -2.2945 -1.1854 -2.1651 1.8653 0.6022 -2.7231 -0.3140 1.5133 0.9301 0.4988 -0.9921 0.3654 -1.6615 -0.0448 0.4784 0.6343 2.4419 -0.3102 0.3410 1.2027 1.5761 -4.1069 -5.9585 -4.4723 1.2351 0.9090 1.4828 -1.5423 -2.1874 0.7274 2.0231 2.8589 -1.7463 0.6837 1.0954 0.3385 -0.3214 0.0550
1.8873 -1.1686 3.2603 0.0306 -4.2403 -5.2964 1.5229 -3.9516 -7.0543 -5.9722 0.8542 0.6206 0.5249 -0.5567 3.4868 2.2638 -2.8103 -3.6580 1.8141 -2.7279 -5.0988 2.5859 -1.4948 -3.2054 1.5859 4.5109 3.6021 2.3763 3.7458 2.8281 0.3072 4.0009 4.0632 1.9496 2.4096 2.4543 -0.0901 2.7642 3.7153 -3.8079 1.8419 0.4960 -4.0639 -0.4870 1.1460 1.5465 0.2745 -1.9834 1.3829 -2.0068 -1.1781 -2.3745 1.6947 0.6646 -2.7334 -0.6182 1.3058 0.8702 0.7298 -0.9111 0.6218 -1.5227 -0.0476 0.2735 0.5861 2.5439 -0.3966 0.3243 1.2296 1.4363 -4.0362 -5.6056 -4.6093 0.7908 0.7330 1.7802 -1.1541 -2.1429 0.7631 1.9361 2.8778 -1.8538 0.5187 1.0647 0.3785 -0.2074 0.0896
2.3905 -0.8117 2.9186 0.7004 -2.9074 -6.4849 2.1912 -4.6179 -6.9869 -5.9304 1.0621 0.9446 0.9773 -0.4805 3.3378 1.8437 -3.1858 -3.6216 2.4322 -3.4460 -4.9905 2.2796 -1.8880 -3.2146 1.0707 4.6743 3.7102 1.8950 4.1224 2.8020 -0.0263 3.9042 4.2679 1.6837 2.7513 2.3779 -0.2232 2.6338 3.8743 -3.7407 1.8168 0.3880 -4.0546 -0.2250 1.6732 1.5005 0.0043 -1.9935 1.0698 -2.2320 -1.1561 -2.3080 1.6147 0.4835 -2.7234 -0.4103 1.7566 0.9037 0.5534 -0.9176 0.4080 -1.6436 -0.0144 0.4045 0.6355 2.5088 -0.3567 0.3135 1.2582 1.4466 -4.0077 -5.8976 -4.5685 0.9316 0.9662 1.5531 -1.4451 -2.1366 0.6639 2.0363 2.8877 -1.8131 0.5544 1.1509 0.3304 -0.3075 0.1079
-0.9284 4.0094 1.8244 3.6784 -4.0172 -4.0310 3.8395 -1.7329 -3.6015 -5.3702 -1.0351 3.1873 0.0952 3.3249 0.9499 0.6647 -2.3796 -4.6542 2.1341 -2.5358 -4.9972 0.3300 -0.9919 -4.5984 3.2542 0.6798 3.9856 3.4482 0.5088 2.6657 2.0011 1.2220 4.4763 2.4026 0.8787 1.7284 1.0295 1.5552 3.6095 -4.3693 0.6151 1.7914 -3.0528 -1.2433 2.6467 -0.6788 0.6244 -3.1503 0.5192 -1.2563 -2.2040 -3.1772 1.1123 1.1316 -1.9478 -0.7768 2.0352 -0.9288 1.1117 -1.9189 0.2456 -0.7428 -0.8853 0.1592 1.8657 1.2965 -0.7758 0.9308 0.5934 2.8954 -2.8201 -3.7905 -4.2978 -0.5126 2.5172 0.0512 -0.6267 -3.2999 1.2367 1.3791 2.1790 -2.0088 0.4551 1.2560 -0.4494 0.3979 -0.7428
-1.2152 4.0829 1.4434 -0.1980 -3.3153 -5.8715 1.0340 -4.7702 -4.5297 -5.3291 -1.4905 1.6017 0.1645 3.5246 1.1922 2.6053 -2.0632 -3.9746 1.9501 -2.7089 -5.1744 2.2982 -0.6705 -3.9515 2.2369 1.0557 5.2313 0.8982 1.1852 5.2273 2.9907 1.2609 4.0069 0.2101 1.5327 3.9992 2.3517 1.5761 2.8654 -2.9878 -1.3980 2.0365 -4.0491 0.2771 0.6298 0.7694 0.8065 -2.8605 1.8497 -0.9612 -1.5981 -1.7175 -0.7292 1.8170 -2.8718 0.8981 0.4352 0.1454 1.2503 -1.7525 1.1644 -0.4986 -0.4132 0.2390 2.0796 1.5945 -0.3928 1.0598 0.6957 0.7258 -3.3690 -4.7531 -4.0979 -0.9093 1.4596 1.6321 -0.3642 -2.7864 0.9024 1.7111 2.8592 -1.6583 0.3791 1.0524 0.3498 0.5683 -0.4819
2.2766 -1.5002 1.4819 2.9989 -4.3517 -3.5724 4.4363 -2.6130 -4.1574 -5.9610 1.4593 2.0018 1.0778 -1.1145 2.3187 0.7995 -2.5857 -4.6653 2.2709 -2.6338 -5.0104 0.3904 -1.2374 -4.4667 2.0309 3.7638 3.7497 0.8735 3.2375 4.1889 2.7331 3.1468 2.6392 0.3497 2.0267 3.5809 2.2292 2.0474 2.0521 -4.2128 -0.1659 1.9970 -3.7722 2.1311 1.3367 0.3038 0.3840 -2.7390 -0.2827 -1.9148 -2.2393 -2.8137 -0.4739 1.7442 -2.4777 1.8452 1.1141 0.0548 0.7503 -1.4703 -0.4987 -1.5292 -0.8578 0.5421 0.2183 1.8789 -0.5798 0.2566 0.8849 3.0578 -2.9214 -3.8222 -4.6622 1.0836 1.7897 0.1611 -1.0059 -3.1319 1.0012 1.4493 2.5535 -1.9788 0.4905 1.3092 -0.3483 -0.2432 -0.4889
2.4656 -0.8196 3.0041 0.1369 -1.9506 -5.1062 0.4382 -3.6841 -6.6263 -5.7351 0.8417 0.2136 1.0272 -0.5150 3.3527 2.2811 -3.3217 -3.4660 2.0305 -3.3480 -4.9562 2.6738 -1.9971 -3.1015 0.9858 4.6471 3.6401 1.8624 4.0983 2.7803 -0.1180 3.8598 4.1596 1.7023 2.7156 2.3708 -0.2678 2.5788 3.7797 -3.9751 -0.4803 1.1254 -3.5024 1.6892 0.1335 1.7493 -0.0986 -1.9781 1.4042 -2.3269 -1.0801 -2.5564 -0.6304 1.3972 -2.1891 1.5483 0.3903 1.0873 0.4503 -0.9408 0.6753 -1.7409 0.0196 0.4665 0.5729 2.4791 -0.2266 0.2242 1.1963 0.6031 -3.3220 -5.2299 -4.4169 0.6330 0.5180 1.8890 -1.5468 -2.0649 0.6770 1.9851 2.8460 -1.6948 0.3448 1.0490 0.5270 -0.4073 0.0947
0.7611 3.9973 0.2420 1.6271 -3.8394 -3.3007 2.8032 -4.6149 -5.1419 -5.2422 -1.7342 2.7681 -0.2284 3.4813 1.2608 2.2297 -1.0412 -4.5171 2.0330 -2.4150 -5.1259 0.9598 -0.3877 -4.4817 2.7339 0.9385 4.5929 3.2069 1.3602 3.4066 1.3033 0.8124 4.8067 2.2823 1.6913 2.3394 0.4464 1.1314 3.8211 -4.3850 0.1044 1.5187 -2.8803 -1.5586 2.4596 -0.3392 0.9914 -3.0321 1.0177 -0.7857 -2.0987 -3.2283 0.8069 0.9981 -1.8094 -0.9058 1.9700 -0.7642 1.3430 -1.8036 0.5778 -0.3979 -0.7787 -0.0321 2.0149 1.5269 -0.7924 1.0283 0.6933 2.6182 -3.4513 -4.2905 -4.2065 -1.0255 2.2221 0.6228 -0.0888 -3.1824 0.9548 1.5851 2.5355 -1.9877 0.3352 1.2236 -0.2822 0.6244 -0.6321
0.6496 -1.6000 3.4444 1.7223 -5.2642 -4.8516 3.3180 -4.0644 -3.6537 -5.8274 1.1108 1.7049 1.3911 -0.8806 2.3443 0.8520 -1.9795 -4.9774 1.9783 -2.9635 -5.2280 1.3871 -0.7738 -4.4307 1.6091 3.8866 4.1976 0.4900 3.2001 4.4887 2.4665 3.4599 3.1059 0.1490 2.0229 3.7158 2.1447 2.3731 2.3817 -3.7089 2.0436 1.1408 -3.9315 -0.3371 1.5874 0.9626 0.7931 -2.6749 0.5125 -1.5618 -2.3226 -2.2908 1.8339 0.9206 -2.6135 -0.5263 1.3877 0.5887 1.0781 -1.4121 0.0952 -1.2566 -0.9759 0.6759 0.3824 1.9554 -0.3135 0.3567 0.8303 1.9742 -3.9923 -4.1997 -4.4855 0.9962 1.4619 0.8893 -0.5772 -3.1618 0.9400 1.6242 2.7026 -1.7563 0.6044 1.0515 0.1314 0.0113 -0.5331
1.1765 3.1385 -0.6883 4.5388 -2.3462 -4.4701 3.1733 -0.4663 -4.2850 -5.6965 -0.3940 3.2294 0.2460 3.1317 0.5012 1.1117 -3.0504 -4.0238 2.2414 -2.5240 -4.8797 -0.0008 -2.1590 -4.0899 3.0704 0.9626 4.1854 3.2726 0.4716 2.9495 1.8665 1.7194 4.4774 2.2923 0.7098 1.9053 0.9534 1.9323 3.5131 -3.3510 -0.7806 3.0414 -4.4468 0.8778 1.6418 -0.8167 -0.2133 -2.9721 0.2288 -1.9881 -1.6904 -2.0954 -0.4547 2.3864 -3.2812 1.1826 1.0439 -1.0227 0.5054 -1.8523 0.0352 -1.2031 -0.4925 0.1855 1.7719 1.1378 -0.8484 0.8098 0.6362 3.2337 -1.8937 -4.0247 -4.4719 -0.1379 2.6739 -0.1380 -1.4975 -2.8908 1.1734 1.4092 2.1730 -2.0573 0.4927 1.4288 -0.5728 -0.0064 -0.5648
0.8971 3.3111 -0.7245 4.6478 -2.3913 -4.2792 3.2587 -0.5223 -4.1759 -5.7913 -0.2992 3.1194 0.1173 3.2119 0.5657 1.2194 -3.1209 -3.8819 2.3611 -2.6074 -4.7298 0.0992 -2.2441 -3.9976 3.0686 0.8423 4.0863 1.8542 1.2746 4.4702 3.3781 0.7074 2.6741 0.8535 1.6066 3.4726 2.4495 1.0096 1.7492 -3.4436 -0.6966 2.9932 -4.4986 0.9433 1.5420 -0.7502 -0.2708 -2.9543 0.2661 -2.0085 -1.5992 -2.1715 -0.3857 2.3635 -3.3173 1.2345 0.9678 -0.9877 0.4762 -1.8596 0.0389 -1.1937 -0.4281 0.1674 1.8091 1.0991 -0.8761 0.8445 0.6228 3.3288 -1.9410 -3.8741 -4.5529 -0.0558 2.5892 -0.0706 -1.5504 -2.8211 1.1318 1.4704 2.1629 -2.1041 0.5498 1.3953 -0.5737 -0.0035 -0.5482
1.5019 3.7406 0.0261 0.1387 -4.0494 -6.1580 -0.4409 -3.0827 -4.1217 -5.3391 -1.4019 1.6556 0.1708 3.4610 0.6857 2.3560 -1.7203 -4.4725 1.7912 -3.0756 -4.8312 2.8878 -1.7667 -3.1493 1.3710 1.8339 5.4628 0.0735 2.0377 5.1724 2.3471 1.7202 4.3943 -0.3501 2.1513 3.7893 1.9546 1.8158 3.1122 -4.0312 0.1433 0.3952 -3.0007 -1.2366 2.1106 2.1158 -1.4921 -0.9083 1.3684 0.0389 -2.6363 -2.7333 0.7483 0.1485 -1.8003 -0.6760 1.8775 1.3877 -0.8414 0.0185 0.5488 0.7077 -1.6514 0.1978 2.1252 1.3721 -0.3008 0.9094 0.6540 0.4181 -2.9245 -5.2829 -4.1490 -0.8026 1.3419 2.0726 -1.0588 -2.2967 0.5536 2.0453 2.7983 -1.6607 0.3671 0.8691 0.5508 0.2828 -0.3759

>  <OB_ATOM_TYPES> (3ertA1)
C.3 C.3 C.3 O.3 C.3 C.3 C.3 O.3 C.ar C.ar C.ar C.ar C.ar C.ar C.ar C.ar C.ar C.ar C.ar C.ar C.ar C.3 C.3 N.3 C.ar C.ar C.ar C.ar C.ar

>  <ENSEMBLE_RMSD> (3ertA1)
1.362 1.365 1.479 1.490 1.624 1.635 1.645 1.666 1.705 1.706 1.748 1.771 1.776 1.819 1.827 1.853 1.874 1.879 1.912 1.928 1.939 1.960 1.976 2.005 2.047 2.048 2.053 2.106 2.109 2.111 2.120 2.124 2.128 2.137 2.163 2.174 2.176 2.189 2.200 2.208 2.219 2.244 2.248 2.260 2.269 2.327 2.332 2.334 2.375 2.397

$$$$
