
 OpenBabel03071213D

  9  9  0  0  0  0  0  0  0  0999 V2000
   -1.7620   12.3910   15.3090 N   0  0  0  0  0
   -2.7970   14.2350   14.4910 N   0  0  0  0  0
   -1.1750   15.6620   19.0050 C   0  0  0  0  0
   -1.7740   16.3410   17.9320 C   0  0  0  0  0
   -0.9140   14.2950   18.8850 C   0  0  0  0  0
   -2.1070   15.6530   16.7580 C   0  0  0  0  0
   -1.2570   13.6340   17.7080 C   0  0  0  0  0
   -2.1930   13.6270   15.4960 C   0  0  0  0  0
   -1.8530   14.3110   16.6580 C   0  0  0  0  0
  1  8  1  0  0  0
  2  8  2  0  0  0
  3  4  2  0  0  0
  3  5  1  0  0  0
  4  6  1  0  0  0
  5  7  2  0  0  0
  6  9  2  0  0  0
  7  9  1  0  0  0
  8  9  1  0  0  0
M  END
>  <MOLID> (3ptbA1)
3ptbA1

>  <SMILES_CANONICAL> (3ptbA1)
NC(=N)c1ccccc1	

>  <FINGERPRINT> (3ptbA1)
0000000000000000000000000000000000000000000000000000000000000000000000000000000000000001000000000000000000000001000001100000000000000000000000000000000000000000000000000000000000000000000000000000000000000000000000000000000000000000000000000001000000000000000000000000000000000001000000000000000000000000000010000100001100000000000000000000000000000000010000000000000010000000000000000000000000000000000010000000000000000000000000000000000000000000000000000000000000000000000000000000000000001000000000000000000000000000000000000000000000000000000000100000000000000000000000000000000000000000000000000000000000000000000000000000000000000000000000000000000000000000000000000000100000000000100000000000000000000000000000000000000000000000000000000100000000000000000000000000000000000000000000000000000010000000000000000000000000000000010000000000000000000000000000000000000000000000000000000000000000000000000000000000000000001000000000000000011000000000000000000100000000000100000000000000000000000000000000000000000000000000

>  <MACCS166> (3ptbA1)
000000000000000000000000000000000000010000100000010000000000000000000000000111000001000000000000001000000000000000000010000000000010000000000100000000100001010010101000

>  <OB_MW> (3ptbA1)
120.069

>  <OB_logP> (3ptbA1)
1.7707

>  <OB_PSA> (3ptbA1)
49.87

>  <OB_MR> (3ptbA1)
37.7061

>  <OB_ATOMIC_CHARGES> (3ptbA1)
0.2047061673 0.2047061673 6.3879e-06 0.0002552996 0.0002552996 0.0079924056 0.0079924056 0.4766083988 0.0974774682

>  <MCT_HBD> (3ptbA1)
2

>  <MCT_HBA> (3ptbA1)
2

>  <ENSEMBLE_TOTAL> (3ptbA1)
3

>  <ENSEMBLE_COORDS> (3ptbA1)
-0.0029 -2.0700 -1.6068 -1.0379 -0.2260 -2.4248 0.5841 1.2010 2.0892 -0.0149 1.8800 1.0162 0.8451 -0.1660 1.9692 -0.3479 1.1920 -0.1578 0.5021 -0.8270 0.7922 -0.4339 -0.8340 -1.4198 -0.0939 -0.1500 -0.2578
-0.5947 -0.1732 -2.6887 -0.5655 -2.1587 -1.4534 0.5479 1.2613 2.1004 0.2257 1.9308 0.9791 0.5971 -0.1897 2.0914 -0.0850 1.2020 -0.2375 0.3211 -0.8663 0.9622 -0.4116 -0.8631 -1.5037 -0.0349 -0.1432 -0.2498
-1.1406 -0.2366 -2.4988 -0.0313 -2.1057 -1.6367 0.5377 1.2544 2.1082 -0.0236 1.8979 1.0688 0.8522 -0.1591 2.0028 -0.3212 1.1768 -0.1560 0.5741 -0.8294 0.8705 -0.4090 -0.8626 -1.5057 -0.0383 -0.1358 -0.2532

>  <OB_ATOM_TYPES> (3ptbA1)
N.pl3 N.pl3 C.ar C.ar C.ar C.ar C.ar C.2 C.ar

>  <ENSEMBLE_RMSD> (3ptbA1)
0.000 1.071 1.088

$$$$
