
 OpenBabel03071213D

 24 26  0  0  0  0  0  0  0  0999 V2000
  -46.2590   15.5230  -10.4960 O   0  0  0  0  0
  -49.9890   22.7400  -17.3520 O   0  0  0  0  0
  -44.7500   19.3450  -14.0340 O   0  0  0  0  0
  -51.0440   17.8240  -12.7020 O   0  0  0  0  0
  -51.2790   19.8670  -14.5010 O   0  0  0  0  0
  -44.7990   15.7490  -12.0830 O   0  0  0  0  0
  -48.0290   23.1800  -17.9710 O   0  0  0  0  0
  -44.4700   20.3130  -15.8840 O   0  0  0  0  0
  -46.3310   17.8240  -13.0840 N   0  0  0  0  0
  -48.1270   16.9750  -12.1000 C   0  0  0  0  0
  -46.9530   21.2250  -16.0700 C   0  0  0  0  0
  -49.2510   20.9860  -15.6120 N   0  0  0  0  0
  -45.8680   16.0700  -11.5400 C   0  0  0  0  0
  -48.7650   22.5510  -17.1820 C   0  0  0  0  0
  -45.2500   19.9050  -14.9930 C   0  0  0  0  0
  -49.8870   18.3710  -13.2530 C   0  0  0  0  0
  -50.0170   19.4080  -14.1530 C   0  0  0  0  0
  -46.7630   16.9500  -12.1840 C   0  0  0  0  0
  -47.4510   18.4840  -13.5250 C   0  0  0  0  0
  -48.2630   21.6020  -16.2570 C   0  0  0  0  0
  -48.5740   17.9490  -12.9140 C   0  0  0  0  0
  -46.5970   20.2060  -15.1880 C   0  0  0  0  0
  -48.9060   20.0120  -14.7640 C   0  0  0  0  0
  -47.5900   19.5400  -14.4750 C   0  0  0  0  0
  1 13  1  0  0  0
  2 14  1  0  0  0
  3 15  1  0  0  0
  4 16  1  0  0  0
  5 17  1  0  0  0
  6 13  2  0  0  0
  7 14  2  0  0  0
  8 15  2  0  0  0
  9 18  1  0  0  0
  9 19  1  0  0  0
 10 18  2  0  0  0
 10 21  1  0  0  0
 11 20  2  0  0  0
 11 22  1  0  0  0
 12 20  1  0  0  0
 12 23  2  0  0  0
 13 18  1  0  0  0
 14 20  1  0  0  0
 15 22  1  0  0  0
 16 17  2  0  0  0
 16 21  1  0  0  0
 17 23  1  0  0  0
 19 21  2  0  0  0
 19 24  1  0  0  0
 22 24  2  0  0  0
 23 24  1  0  0  0
M  END
>  <MOLID> (4aahC1)
4aahC1

>  <SMILES_CANONICAL> (4aahC1)
OC(=O)c1cc(C(=O)O)c2c(n1)c(O)c(c1c2[nH]c(c1)C(=O)O)O	

>  <FINGERPRINT> (4aahC1)
0000000000000000000000000000001000000000100000000001100000001000011000000000000001000001000000010001000000000001000000100000000000010000000001000000000000100000000000000000000011000000000001000000011010000000000100000000000000000000001000000000000000000100000000000100000000000011000000000000000000000000000010000100000010000000000010000000000000000100010000000000000010000000000000001000000000000000100010000000011000000000110100001000000000000000000000000000001000000000010000000000101000001100100000000000110000000000000000001000000000000000000000101000000000000000000001000000000001100000000000000000000001000000000001100000001000000000010000000000000000000000000000000000100000000110100010100110100000100000100000000010000001000010100000000100000000000000000001000000000000000000001001000000000010000000000000000000000000000000000000000100001000000000010000000000000000000100000000000000000000000000000000000000000000000100000000000000001000000000000000011100000000000100000000100000000000000000001001000000000000100000

>  <MACCS166> (4aahC1)
000000000000000000000000010000000000000000001000010011000000000010000001000101010010000000000011111000001000000010000011101010100010000110110111110001110101111010111000

>  <OB_MW> (4aahC1)
332.028

>  <OB_logP> (4aahC1)
1.2219

>  <OB_PSA> (4aahC1)
181.04

>  <OB_MR> (4aahC1)
78.5236

>  <OB_ATOMIC_CHARGES> (4aahC1)
-0.238849905 -0.2388498943 -0.2405500677 -0.2830361338 -0.2815159156 -0.238849905 -0.2388498943 -0.2405500677 -0.2385338267 0.0306365329 0.0325157215 -0.2352850289 0.4050814528 0.4050837427 0.3879019324 0.2371935069 0.2517024485 0.1608823661 0.0864540287 0.1610470018 0.0616406957 0.0844831617 0.1251742587 0.0450737886

>  <MCT_HBD> (4aahC1)
6

>  <MCT_HBA> (4aahC1)
10

>  <ENSEMBLE_TOTAL> (4aahC1)
3

>  <ENSEMBLE_COORDS> (4aahC1)
1.4582 -3.7520 3.7672 -2.2718 3.4650 -3.0888 2.9672 0.0700 0.2292 -3.3268 -1.4510 1.5612 -3.5618 0.5920 -0.2378 2.9182 -3.5260 2.1802 -0.3118 3.9050 -3.7078 3.2472 1.0380 -1.6208 1.3862 -1.4510 1.1792 -0.4098 -2.3000 2.1632 0.7642 1.9500 -1.8068 -1.5338 1.7110 -1.3488 1.8492 -3.2050 2.7232 -1.0478 3.2760 -2.9188 2.4672 0.6300 -0.7298 -2.1698 -0.9040 1.0102 -2.2998 0.1330 0.1102 0.9542 -2.3250 2.0792 0.2662 -0.7910 0.7382 -0.5458 2.3270 -1.9938 -0.8568 -1.3260 1.3492 1.1202 0.9310 -0.9248 -1.1888 0.7370 -0.5008 0.1272 0.2650 -0.2118
1.3235 -4.3296 3.2230 -1.5131 4.3288 -2.5731 2.8021 -0.4776 -1.3095 -3.1853 -1.5655 1.7402 -3.7498 0.4528 -0.1144 3.1407 -3.0004 2.8647 -0.5745 3.1721 -4.3078 3.2727 1.5119 -0.2863 1.4005 -1.3289 1.2163 -0.3525 -2.3354 2.2753 0.6840 1.9845 -1.8781 -1.6566 1.6560 -1.4672 1.9430 -3.2156 2.7688 -0.8708 3.2765 -3.1290 2.4770 0.7078 -0.7448 -2.1935 -0.8920 1.0674 -2.4585 0.0707 0.1736 0.9892 -2.3105 2.1240 0.2175 -0.7231 0.7775 -0.6054 2.2648 -2.0973 -0.8519 -1.2933 1.3746 1.0337 0.9652 -0.9124 -1.3478 0.7586 -0.5724 0.0758 0.3223 -0.2130
1.3278 -4.2802 3.3267 -0.5112 4.5808 -2.5951 3.0874 1.5984 -0.1004 -3.2007 -1.7285 1.5522 -3.7607 0.4047 -0.1704 3.1602 -3.0706 2.7168 -1.4218 3.1186 -4.1006 2.9771 -0.3645 -1.2715 1.3921 -1.3448 1.1931 -0.3599 -2.4149 2.1872 0.6768 1.9845 -1.8722 -1.6548 1.7734 -1.3403 1.9512 -3.2400 2.7267 -0.8863 3.3570 -3.0307 2.4486 0.6197 -0.7815 -2.2064 -0.9793 0.9698 -2.4696 0.0384 0.1377 0.9851 -2.3512 2.0751 0.2049 -0.7609 0.7374 -0.6037 2.3522 -1.9992 -0.8645 -1.3643 1.2990 1.0211 0.9629 -0.9089 -1.3554 0.7929 -0.5340 0.0626 0.3155 -0.2169

>  <OB_ATOM_TYPES> (4aahC1)
O.co2 O.co2 O.co2 O.3 O.3 O.co2 O.co2 O.co2 N.ar C.ar C.ar N.ar C.2 C.2 C.2 C.ar C.ar C.ar C.ar C.ar C.ar C.ar C.ar C.ar

>  <ENSEMBLE_RMSD> (4aahC1)
0.000 0.616 0.726

$$$$
