
 OpenBabel03071213D

  9  8  0  0  0  0  0  0  0  0999 V2000
   62.3020   -2.5140   25.5850 O   0  0  0  0  0
   65.2800    1.8180   23.0070 O   0  0  0  0  0
   63.6410   -2.3500   23.8550 O   0  0  0  0  0
   63.1730    1.4180   22.9320 O   0  0  0  0  0
   65.5180    0.1710   25.0990 O   0  0  0  0  0
   63.1390   -0.3190   25.0180 C   0  0  0  0  0
   63.1220   -1.8410   24.8880 C   0  0  0  0  0
   64.2980    1.1720   23.4200 C   0  0  0  0  0
   64.4210    0.3040   24.4840 C   0  0  0  0  0
  1  7  1  0  0  0
  2  8  1  0  0  0
  3  7  2  0  0  0
  4  8  2  0  0  0
  5  9  2  0  0  0
  6  7  1  0  0  0
  6  9  1  0  0  0
  8  9  1  0  0  0
M  END
>  <MOLID> (4ctsB1)
4ctsB1

>  <SMILES_CANONICAL> (4ctsB1)
OC(=O)CC(=O)C(=O)O	

>  <FINGERPRINT> (4ctsB1)
0000000000000100000000000000000000000000000000000000000000000000000000000000000000000000000000000000000000000000000000000000000000000000001000000000000000000000000000000000000000000000000000000000000000000000000000000000000000000000000000000000000000000000000001000000000000000001000000000000000000000000000000000000000000000000000000000000000000000000010000000000000001010000000000000001010000000000100000000000000000000000000000000000000000000000000000000000000000000000000000000000000000001000000000000000100000000000000000000000000000000000000000000000000000000000000000000000000001000000000000000000000000000000000000000000000000000001000000000000000000000000000000000000000000000000000010100000000000000001000000000000000000000000000000000000000000000000000100000000000000000000000000000000000000000000000000000000000000000000000000000000000000000000000000000000000000000000000000000000000000000000000000000000000000000010000000000000000000000000000000000000000000000000000000000000000000000000000000000000000000000000

>  <MACCS166> (4ctsB1)
000000000000000000000000000000000000000000000000000000000000000000000001000000000000000011000000000000010000000000000000001000000011000100110000010000010110101000010000

>  <OB_MW> (4ctsB1)
132.006

>  <OB_logP> (4ctsB1)
-0.8852

>  <OB_PSA> (4ctsB1)
91.67

>  <OB_MR> (4ctsB1)
25.0856

>  <OB_ATOMIC_CHARGES> (4ctsB1)
-0.2451494437 -0.2373036788 -0.2451494437 -0.2373036788 -0.2836911031 0.1899182817 0.3728719747 0.4224402809 0.2633668107

>  <MCT_HBD> (4ctsB1)
2

>  <MCT_HBA> (4ctsB1)
5

>  <ENSEMBLE_TOTAL> (4ctsB1)
2

>  <ENSEMBLE_COORDS> (4ctsB1)
-1.5751 -2.2761 1.3308 1.4029 2.0559 -1.2472 -0.2361 -2.1121 -0.3992 -0.7041 1.6559 -1.3222 1.6409 0.4089 0.8448 -0.7381 -0.0811 0.7638 -0.7551 -1.6031 0.6338 0.4209 1.4099 -0.8342 0.5439 0.5419 0.2298
-1.4892 -2.4976 0.8616 0.0232 2.0714 0.4458 -0.3089 -0.8915 1.9670 0.3669 2.1044 -1.8293 1.7845 -0.2667 -0.5955 -0.5700 -0.7976 -0.4416 -0.7459 -1.3669 0.9305 0.3198 1.5494 -0.7516 0.6197 0.0950 -0.5868

>  <OB_ATOM_TYPES> (4ctsB1)
O.co2 O.co2 O.co2 O.co2 O.2 C.3 C.2 C.2 C.2

>  <ENSEMBLE_RMSD> (4ctsB1)
0.000 1.466

$$$$
