
 OpenBabel03071213D

 29 31  0  0  0  0  0  0  0  0999 V2000
   44.2750   16.9540   82.4050 C   0  0  0  0  0
   45.5910   14.8310   83.1150 C   0  0  0  0  0
   41.8310   13.7210   79.5960 C   0  0  0  0  0
   42.5510   11.5480   80.6550 C   0  0  0  0  0
   39.2820   11.7760   84.7410 O   0  0  0  0  0
   33.5740   17.6150   89.0050 O   0  0  0  0  0
   38.3820   16.9100   85.5560 F   0  0  0  0  0
   34.6040   19.1420   87.8470 O   0  0  0  0  0
   37.8100   14.4220   84.2800 O   0  0  0  0  0
   44.5440   14.9540   80.8520 C   0  0  0  0  0
   44.2200   13.4520   80.5430 C   0  0  0  0  0
   38.2040   14.2870   86.4740 N   0  0  0  0  0
   36.5140   14.9340   87.9060 C   0  0  0  0  0
   41.4900   14.6670   84.7140 C   0  0  0  0  0
   35.6380   15.8550   88.3930 C   0  0  0  0  0
   42.6690   15.1090   84.1380 C   0  0  0  0  0
   36.4520   17.4460   86.8090 C   0  0  0  0  0
   41.1760   13.1620   82.9030 C   0  0  0  0  0
   39.7170   13.0250   85.0930 C   0  0  0  0  0
   34.5340   17.9890   88.2990 C   0  0  0  0  0
   38.4690   13.9820   85.2180 C   0  0  0  0  0
   37.3690   16.5240   86.3550 C   0  0  0  0  0
   37.3680   15.2410   86.8680 C   0  0  0  0  0
   40.7740   13.6270   84.1750 C   0  0  0  0  0
   35.5620   17.0930   87.8380 C   0  0  0  0  0
   43.1070   14.6770   82.8850 C   0  0  0  0  0
   42.3100   13.6680   82.2040 C   0  0  0  0  0
   44.3820   15.3700   82.3410 C   0  0  0  0  0
   42.7010   13.1110   80.7720 C   0  0  0  0  0
  1 28  1  0  0  0
  2 28  1  0  0  0
  3 29  1  0  0  0
  4 29  1  0  0  0
  5 19  1  0  0  0
  6 20  1  0  0  0
  7 22  1  0  0  0
  8 20  2  0  0  0
  9 21  2  0  0  0
 10 11  1  0  0  0
 10 28  1  0  0  0
 11 29  1  0  0  0
 12 21  1  0  0  0
 12 23  1  0  0  0
 13 15  1  0  0  0
 13 23  2  0  0  0
 14 16  1  0  0  0
 14 24  2  0  0  0
 15 25  2  0  0  0
 16 26  2  0  0  0
 17 22  2  0  0  0
 17 25  1  0  0  0
 18 24  1  0  0  0
 18 27  2  0  0  0
 19 21  1  0  0  0
 19 24  1  0  0  0
 20 25  1  0  0  0
 22 23  1  0  0  0
 26 27  1  0  0  0
 26 28  1  0  0  0
 27 29  1  0  0  0
M  END
>  <MOLID> (4lbdA1)
4lbdA1

>  <SMILES_CANONICAL> (4lbdA1)
O[C@@H](c1ccc2c(c1)C(C)(C)CCC2(C)C)C(=O)Nc1ccc(cc1F)C(=O)O	

>  <FINGERPRINT> (4lbdA1)
0000000000000000010000000000001000100001000000000000100000000000000000000001000000010011000000101000001000001101000001100000000000100000000000000001000010000001000000000000000001000000000100100000000000000000000000000000000000000000000000000000000000000001000000000000000000001001000000000000000000001000001010000100000000101000001110000000000000000100010100000000000011011000000000000000000100000000100000000000000100000000001100001001000000000000010000000000001000000000010000000000000000001000000000000000100000000000000001000000011000000000000000100000000000000000000000000000101000000000001000000000000001000000000000000000000000000001010000000001000000000001000000000001100000100010000011100010000010100011000000000110000000000000100000010100000000000000000101010000000000000000000000000000000010000000000000000000000000000011000010000000000000000000000000000000000010000000010000001000000100000100000000001000000000000010000000000000011010000000000000111100000000000000001000000000000000000000000000000000011000000000

>  <MACCS166> (4lbdA1)
000000000000000000000000010000000000000001001000010001000000000001000001010100000000001000010010001000001011010100111100001010000010111100111101111011110101111110111000

>  <OB_MW> (4lbdA1)
399.185

>  <OB_logP> (4lbdA1)
4.618

>  <OB_PSA> (4lbdA1)
86.63

>  <OB_MR> (4lbdA1)
109.747

>  <OB_ATOMIC_CHARGES> (4lbdA1)
0.0043589383 0.0043589383 0.0043588158 0.0043588158 -0.2082510671 -0.2405511656 -0.2027953385 -0.2405511656 -0.2698534981 0.0043589378 0.0043588163 -0.1745067201 0.0190925096 -0.0016913738 0.0080573906 -0.0048294987 0.0375578689 -0.0059461782 0.2516375018 0.3878250024 0.2804338178 0.1555293577 0.1008036421 0.0163202056 0.0820893266 -0.0267861455 -0.0269922228 0.0186314818 0.0186230071

>  <MCT_HBD> (4lbdA1)
3

>  <MCT_HBA> (4lbdA1)
5

>  <ENSEMBLE_TOTAL> (4lbdA1)
50

>  <ENSEMBLE_COORDS> (4lbdA1)
4.3554 1.8040 -1.7841 5.5807 -0.2083 -1.1252 2.1011 -2.4176 -4.5200 4.1914 -2.8444 -3.3368 -0.9375 -3.2420 -0.6917 -4.9802 3.1194 5.3098 -2.2785 1.6865 0.1950 -5.7398 3.8295 3.2848 -2.4547 -0.9278 -0.5137 4.7772 0.0558 -3.4183 3.6856 -0.5857 -4.2416 -1.4956 -0.6349 1.5998 -2.6786 0.1691 3.4691 1.3473 -0.5014 0.1595 -3.5607 1.1440 4.0906 2.5633 0.0894 -0.3313 -3.5502 2.3902 2.0136 1.3191 -1.9280 -1.7797 -0.4624 -2.1608 0.0801 -4.9984 3.1281 3.9568 -1.5993 -1.1837 0.3280 -2.7392 1.4815 1.4460 -2.3364 0.2835 2.1705 0.7208 -1.4717 -0.5300 -3.9927 2.2086 3.3880 3.1511 -0.3506 -1.4624 2.4882 -1.4197 -2.2369 4.4192 0.2967 -1.9619 3.1036 -1.8097 -3.5580
5.3175 1.2860 -2.2007 5.7891 -1.0848 -2.4950 1.5161 -2.4319 -4.3275 3.6989 -3.1773 -3.5518 -0.3776 -2.8082 0.3025 -6.7806 2.3059 4.2542 -1.1473 2.0351 2.2804 -5.6402 4.1348 3.5227 -1.2808 0.3017 -0.2263 4.2958 0.1185 -4.0709 3.4327 -0.9825 -4.6447 -1.7516 -0.6561 1.8493 -3.9473 -0.2526 2.6195 2.1142 -0.1795 0.2127 -4.9641 0.6664 3.1040 3.2692 0.1807 -0.5758 -3.3247 2.4491 3.0081 1.4548 -1.6812 -1.5553 0.0907 -1.5171 0.6140 -5.7231 2.9257 3.6804 -1.0559 -0.5228 0.6547 -2.3942 1.5958 2.5476 -2.7211 0.2009 2.2957 1.2311 -1.0840 -0.2458 -4.6691 1.9672 3.2921 3.5191 -0.4080 -1.7632 2.5481 -1.3843 -2.2945 4.7001 -0.0372 -2.6192 2.8002 -1.9603 -3.6672
5.5909 0.9892 -2.0760 5.6993 -1.3657 -2.6870 1.1605 -1.8887 -4.2816 3.2652 -3.0146 -3.8001 0.0051 -2.8408 0.7753 -6.7885 2.3216 4.1202 -1.2661 2.0407 1.8130 -5.6528 4.1366 3.3513 -1.3536 -0.0438 -0.3201 4.2831 0.2171 -3.9729 3.2364 -0.6793 -4.5950 -1.7450 -0.7217 1.8792 -3.8608 -0.2931 2.8186 2.3718 -0.3052 0.4063 -4.8774 0.6430 3.2674 3.5152 -0.0167 -0.4271 -3.3948 2.4623 2.6655 1.4091 -1.5155 -1.4471 0.2500 -1.4562 0.8327 -5.7266 2.9319 3.5440 -1.0313 -0.6596 0.6904 -2.4565 1.5904 2.2599 -2.7116 0.1585 2.2809 1.3548 -1.0414 -0.0721 -4.6657 1.9704 3.1790 3.6048 -0.4930 -1.6858 2.4762 -1.2661 -2.2395 4.7642 -0.1759 -2.5913 2.5440 -1.6846 -3.6882
5.0744 1.4002 -2.3572 5.9319 -0.8695 -2.0327 1.2725 -2.0708 -4.3278 3.4506 -3.0212 -3.7539 -0.1084 -2.8884 0.6399 -5.2229 4.1908 3.6202 -1.1877 1.9069 1.9173 -6.6843 2.5691 4.2627 -1.4428 -0.0901 -0.4685 4.6361 -0.3171 -4.0243 3.2507 -0.6611 -4.5167 -1.8933 -0.8004 1.7084 -3.9971 -0.2877 2.6173 2.2227 -0.2767 0.3527 -4.9372 0.6757 3.1609 3.3730 0.0572 -0.4524 -3.2941 2.4187 2.7772 1.3943 -1.5855 -1.4980 0.1344 -1.5044 0.7222 -5.6226 2.9055 3.7603 -1.1435 -0.7111 0.5458 -2.4260 1.5187 2.2847 -2.8008 0.1189 2.1521 1.2625 -1.0744 -0.1428 -4.6092 1.9800 3.2189 3.5357 -0.4429 -1.6963 2.4799 -1.3104 -2.2549 4.7397 -0.0716 -2.5279 2.6117 -1.7584 -3.6872
3.6367 1.8308 -2.6671 5.1607 0.9901 -0.9668 1.8808 -0.1199 -4.3829 1.9185 -2.5384 -4.1216 -0.1728 -3.7787 0.0666 -4.6475 4.2612 2.2167 -1.5019 1.0083 0.2566 -5.1347 3.5430 4.3204 -2.3057 -1.9356 -0.0894 4.8203 -0.3211 -2.9802 3.9761 -1.2941 -3.7737 -1.5364 -1.2112 1.9919 -2.9859 -0.0243 3.4096 1.6320 -0.7333 0.6475 -3.7503 1.1692 3.7275 2.6695 0.0343 0.0012 -2.9643 2.1596 1.6586 1.1537 -1.7642 -1.4792 -0.0728 -2.5003 0.6462 -4.5792 3.3825 3.2442 -1.4325 -1.8517 0.7675 -2.2560 1.0533 1.3741 -2.2956 -0.1046 2.2559 0.8987 -1.6139 -0.0557 -3.7563 2.2133 2.8778 2.9405 -0.1182 -1.3113 2.1231 -1.0583 -2.1024 4.1062 0.5656 -1.9764 2.4752 -1.2432 -3.5557
4.5714 1.4021 -2.3751 5.9088 -0.3268 -1.3037 1.9671 0.6665 -3.9689 1.1538 -1.6065 -4.2474 -0.1047 -3.5821 0.3148 -5.4235 3.0606 4.6691 -2.7529 0.8297 -0.2025 -5.9882 3.6416 2.5419 -2.2053 -1.8326 0.2672 4.8076 -0.8356 -3.4049 3.5526 -1.2293 -4.1531 -1.0566 -0.3734 1.6810 -2.2009 0.7895 3.3871 2.2938 -1.1842 0.7326 -3.2672 1.6854 3.8093 3.4187 -0.6281 0.0193 -3.9656 1.8625 1.4979 1.1518 -1.4240 -1.3802 0.1039 -2.2779 0.8054 -5.2678 3.0381 3.3248 -1.1894 -1.4866 0.8634 -2.9563 1.0657 1.1106 -2.0758 0.4457 2.0903 1.1992 -1.5881 0.0654 -4.1456 2.1697 2.9100 3.4127 -0.5145 -1.3235 2.1975 -0.9070 -2.0662 4.6335 -0.0868 -2.0961 2.2274 -0.7735 -3.5683
4.4068 1.5311 -2.2188 5.7533 -0.4580 -1.8313 1.4710 1.3228 -3.2294 0.3511 -0.7728 -3.7484 0.3560 -3.8089 0.7787 -5.2909 3.5422 3.6754 -1.3381 0.7841 0.1922 -5.3329 3.7459 1.4062 -1.8888 -2.2319 0.2680 4.1654 -0.4643 -3.6650 2.7417 -0.5879 -4.1639 -1.3050 -1.1331 2.2395 -3.0069 0.0696 3.3406 2.5628 -1.4470 0.8190 -3.9228 1.1969 3.3971 3.5792 -0.8625 -0.0264 -2.9902 1.9925 1.3052 1.0113 -1.2577 -1.0152 0.3492 -2.4488 1.1554 -4.9148 3.2065 2.4195 -1.0694 -1.9269 1.1295 -2.1652 0.9340 1.2468 -2.1859 -0.0866 2.2842 1.3247 -1.6693 0.3432 -3.9041 2.1325 2.4285 3.3055 -0.4844 -1.2922 1.9290 -0.6490 -1.7984 4.3673 0.0155 -2.2384 1.6404 -0.1846 -3.2015
4.8953 1.4955 -2.1371 5.7580 -0.7910 -2.2463 0.7303 -1.3141 -4.2038 2.8463 -2.5405 -4.1426 0.1916 -3.3940 0.6828 -5.9730 3.5923 1.6670 -2.0298 0.1185 4.5500 -5.6940 3.6606 3.9238 -1.8915 -1.6417 0.1184 4.2765 0.0393 -3.9923 2.8181 -0.0658 -4.3700 -1.1458 -0.4424 1.9810 -2.7466 1.0982 1.1283 2.3704 -0.7091 0.5781 -3.8409 2.0205 1.3557 3.4205 -0.2170 -0.2831 -3.6698 1.5615 3.7282 1.2521 -1.5567 -1.3817 0.3320 -2.0188 0.9678 -5.3761 3.2266 2.8266 -1.0250 -1.3520 0.9384 -2.6582 0.7017 3.5081 -2.1937 0.4249 2.1556 1.3212 -1.3701 0.0598 -4.3036 2.2347 2.6016 3.4046 -0.4350 -1.6160 2.2407 -1.1319 -2.2020 4.5291 0.0654 -2.4941 2.1612 -1.2596 -3.7020
5.0349 1.3894 -2.6656 5.9262 -0.7054 -1.7560 1.6427 -2.3557 -4.6392 3.6665 -3.2621 -3.6135 0.0329 -2.4537 0.9168 -6.6477 3.3854 3.4987 -2.2581 -0.6412 3.4253 -5.4659 2.8495 5.3699 -0.0911 0.2523 1.9082 4.9812 -0.6517 -4.0010 3.6826 -1.0164 -4.6810 -2.0730 0.0545 0.7092 -3.7204 1.7078 1.0682 1.9189 -0.0543 -0.1060 -4.6485 2.3955 1.9511 3.1543 0.2311 -0.7818 -3.9153 0.9612 3.7606 1.3597 -1.5927 -1.8711 -0.2253 -1.3349 0.0803 -5.6294 2.7880 4.1606 -0.7533 -0.2468 1.0010 -3.0465 0.3420 2.9436 -2.9165 0.7391 1.5471 1.0381 -0.9341 -0.6134 -4.7572 2.0286 3.2425 3.4927 -0.4103 -1.9185 2.5338 -1.3676 -2.5062 4.8082 -0.1108 -2.5930 2.8754 -1.9865 -3.8369
5.5974 0.4740 -1.4776 4.8451 -1.0522 -3.2149 0.1676 0.1625 -3.3073 1.8956 -1.2979 -4.2040 0.3239 -3.8162 0.8584 -5.2638 3.6377 3.5942 -1.3282 0.7938 0.1699 -5.3292 3.7715 1.3204 -1.8938 -2.2241 0.3137 3.8067 1.1869 -2.9655 2.4213 1.0280 -3.5531 -1.2918 -1.0782 2.2523 -3.0116 0.1308 3.3211 2.5864 -1.5235 0.8278 -3.9254 1.2603 3.3561 3.6023 -0.9451 -0.0235 -2.9767 2.0266 1.2597 1.0154 -1.2789 -0.9827 0.3433 -2.4469 1.1997 -4.9022 3.2616 2.3457 -1.0673 -1.9053 1.1633 -2.1562 0.9640 1.2201 -2.1821 -0.0391 2.2741 1.3356 -1.7081 0.3688 -3.8941 2.1856 2.3780 3.3334 -0.6028 -1.3005 1.9501 -0.7393 -1.7965 4.3652 -0.0106 -2.2232 1.6333 -0.2153 -3.1746
3.5963 1.8953 -2.6311 5.3276 0.8511 -1.2819 1.4403 0.2810 -4.1275 1.3147 -2.1456 -4.1031 0.2337 -3.8375 0.4106 -4.8718 3.8221 3.5311 -2.7626 -0.5636 4.3337 -4.4627 4.3885 1.3645 -2.0355 -2.2791 -0.0294 4.5589 -0.2943 -3.2821 3.5038 -1.0891 -4.0220 -1.5070 -1.2657 1.9989 -2.2243 0.7851 1.0047 2.0206 -0.8710 0.7876 -2.9612 2.0316 1.1171 2.9948 -0.1056 0.0410 -3.5249 1.4337 3.3990 1.1022 -1.6253 -1.3114 0.1862 -2.5129 0.8951 -4.3365 3.6180 2.3042 -1.2361 -2.0035 0.8596 -2.8551 0.2747 3.2804 -2.1966 -0.0838 2.0343 1.1100 -1.6197 0.1413 -3.5891 2.3451 2.2662 3.0129 -0.1169 -1.3084 1.9963 -0.9098 -2.0266 4.0916 0.5581 -2.1157 2.0733 -0.9607 -3.5301
5.7384 0.0925 -1.7423 5.0747 -1.7685 -3.1858 0.4322 0.8485 -3.0202 1.6331 -0.8802 -4.2598 0.3131 -3.5951 1.1404 -5.6330 3.3982 3.8802 -2.0416 0.7544 -0.1028 -6.0404 3.3816 1.6424 -1.7907 -1.9477 0.4133 4.1792 0.4717 -3.5685 2.8264 1.1158 -3.3806 -1.0480 -0.5801 2.1599 -2.5777 0.6224 3.4872 2.7676 -1.8405 0.6219 -3.6757 1.5662 3.6094 3.7888 -1.4671 -0.3238 -3.6231 1.8571 1.2051 1.1127 -1.0325 -0.9338 0.4458 -2.1946 1.2771 -5.3771 3.0264 2.6049 -0.9263 -1.5721 1.1995 -2.6032 0.9893 1.1008 -2.0922 0.2963 2.2739 1.4670 -1.6699 0.3272 -4.1918 2.1510 2.5114 3.4769 -0.9248 -1.5195 2.0566 -0.6668 -1.8330 4.5650 -0.5216 -2.4856 1.7432 0.0901 -3.0989
3.8732 2.2217 -1.4046 5.1990 0.1996 -1.6690 1.8818 -2.3142 -4.2964 4.1175 -2.2069 -3.3421 -0.3570 -3.7963 -0.2217 -4.2260 4.0291 3.9925 -2.8750 -0.7315 4.2621 -4.1246 4.6073 1.7938 -2.4722 -2.0244 -0.3444 3.6927 0.9647 -3.4748 3.0174 -0.1645 -4.2226 -1.8279 -1.3679 1.7911 -2.2738 0.8578 1.0515 1.2194 -0.5745 0.4654 -2.8300 2.1712 1.3128 2.2335 0.2644 -0.1307 -3.4179 1.4216 3.5439 1.2399 -1.9132 -1.5358 -0.2502 -2.5573 0.4497 -3.9445 3.7963 2.6895 -1.6330 -1.9501 0.5483 -2.8979 0.2069 3.2929 -2.3255 -0.1063 1.9919 0.7131 -1.6220 -0.2105 -3.3858 2.4431 2.5078 2.7638 -0.0256 -1.3368 2.2408 -1.1871 -2.0806 3.8441 0.8117 -1.9710 2.8053 -1.4539 -3.4520
3.5552 1.9300 -2.5951 5.2613 0.9073 -1.1969 1.4738 0.2489 -4.1617 1.3897 -2.1777 -4.1157 0.2234 -3.8476 0.3579 -4.5398 3.9919 3.5246 -2.8110 -0.5814 4.3369 -4.4654 4.3107 1.2715 -2.1124 -2.3608 -0.0065 4.5686 -0.2394 -3.2248 3.5574 -1.0833 -3.9718 -1.5691 -1.3459 2.0129 -2.1714 0.7382 1.0151 1.8939 -0.8054 0.7835 -2.8604 2.0115 1.1135 2.8785 -0.0336 0.0567 -3.5168 1.4249 3.3751 1.0704 -1.6201 -1.3316 0.1393 -2.5330 0.8624 -4.2140 3.6377 2.2594 -1.2990 -2.0692 0.8648 -2.8730 0.2491 3.2755 -2.1995 -0.1311 2.0443 1.0306 -1.5956 0.1214 -3.5130 2.3402 2.2441 2.9587 -0.0846 -1.2897 1.9811 -0.9064 -2.0289 4.0541 0.5992 -2.0676 2.1088 -0.9745 -3.5293
4.4172 1.5909 -2.3620 5.6664 -0.4839 -1.9932 0.3238 0.0995 -3.5971 1.3867 -2.0562 -4.0846 0.4233 -3.7260 0.7096 -6.0954 2.8328 1.3344 -1.3675 0.8623 4.2946 -5.0194 4.1956 2.8120 -1.9237 -2.4974 1.1603 4.0595 -0.3694 -3.8222 2.6667 0.0282 -4.2517 -0.8752 -0.6047 2.0136 -2.6141 0.5803 0.8987 2.4820 -1.0234 0.7804 -3.6900 1.5540 0.9456 3.4428 -0.4250 -0.1169 -3.2006 1.9051 3.2964 1.0635 -1.4447 -1.1233 0.4878 -2.3966 1.1815 -5.0585 3.1824 2.1307 -0.9088 -1.8497 1.4066 -2.1898 1.0208 3.2370 -1.9087 0.2929 2.0101 1.3511 -1.5649 0.2963 -4.0034 2.1548 2.1089 3.2299 -0.3791 -1.4496 1.9347 -0.8580 -1.9770 4.3143 0.0775 -2.3950 1.6055 -0.6981 -3.4439
4.4624 1.8193 -2.7454 5.3861 0.2486 -1.1099 2.7145 -3.2113 -4.1598 4.4527 -3.0825 -2.4471 -0.8608 -2.8117 -0.5201 -5.2632 4.1699 4.1869 -2.9006 -1.1858 2.9284 -4.8592 2.5683 5.7505 -0.5242 -0.8885 1.5557 5.1726 -0.3936 -3.4577 4.2753 -1.3425 -4.2160 -2.3850 -0.0308 0.4361 -3.3568 1.9824 1.2160 0.9321 0.3008 -0.9516 -4.0051 2.7438 2.2742 2.2673 0.7118 -1.2888 -3.8229 0.8044 3.7109 1.3627 -1.8122 -2.0196 -0.8532 -1.4152 -0.7800 -4.8006 2.9659 4.5958 -1.2153 -0.7688 0.5467 -3.2295 0.1069 2.7287 -2.9379 0.7216 1.4417 0.5048 -0.9469 -1.2182 -4.2216 2.1852 3.4813 3.1062 -0.1096 -1.9513 2.6133 -1.4355 -2.3753 4.4891 0.3585 -2.3291 3.4967 -2.2525 -3.2831
3.8079 2.2653 -1.4387 5.1379 0.2727 -1.8543 1.8416 -2.3195 -4.2750 4.0696 -2.2806 -3.3018 -0.2458 -3.8370 -0.0643 -4.2445 4.4104 1.5415 -2.8612 -0.6737 4.3288 -3.9121 4.3448 3.7934 -2.4424 -2.1582 -0.2123 3.4445 1.0306 -3.5051 3.0764 -0.2297 -4.2580 -1.7830 -1.3845 1.8797 -2.2767 0.8008 1.0610 1.2082 -0.5370 0.4724 -2.8232 2.1246 1.2828 2.1905 0.3144 -0.1547 -3.4228 1.4465 3.5314 1.2589 -1.9357 -1.4881 -0.1829 -2.5654 0.5474 -3.8637 3.8123 2.6952 -1.5881 -2.0111 0.6570 -2.8925 0.2270 3.3245 -2.3157 -0.1295 2.0351 0.7319 -1.6209 -0.1665 -3.4062 2.4294 2.4571 2.7256 0.0021 -1.3522 2.2250 -1.1872 -2.0680 3.7540 0.8669 -2.0303 2.7892 -1.4776 -3.4378
4.7130 1.6002 -3.0714 5.4336 0.2529 -1.1589 2.7229 -3.4855 -3.8163 4.3652 -3.1894 -2.0305 -1.0925 -2.3842 -0.7736 -5.8137 3.6048 4.5293 -2.5480 -1.0735 2.7883 -4.7390 2.2336 5.9943 -0.3810 -0.4108 1.3097 5.3149 -0.7332 -3.3907 4.4042 -1.7397 -4.0526 -2.3808 0.3258 0.3563 -3.6147 2.0825 1.3398 0.9780 0.5783 -1.3309 -4.3031 2.6584 2.4850 2.3585 0.8577 -1.6267 -3.7375 0.6770 3.7560 1.3484 -1.7010 -2.0093 -0.9017 -0.9938 -0.9792 -4.9646 2.6016 4.8509 -1.1674 -0.3451 0.3674 -3.0970 0.1551 2.6972 -2.9859 0.8954 1.4473 0.4949 -0.6741 -1.4265 -4.3639 1.9853 3.6503 3.1859 -0.1022 -2.0880 2.6379 -1.4510 -2.3338 4.6173 0.2227 -2.4378 3.5161 -2.4476 -3.0454
4.9375 1.4723 -1.3261 5.1753 -0.5881 -2.5910 0.5019 -1.0705 -3.9454 2.7957 -1.8684 -4.0898 0.3564 -3.8351 0.6012 -4.8826 3.8846 3.3253 -3.0361 -0.6102 4.1848 -4.3582 4.4297 1.1789 -1.9372 -2.3328 -0.0126 3.5628 1.1480 -3.3045 2.3078 0.5584 -3.9121 -1.5218 -1.2590 2.0099 -2.1030 0.8192 0.9817 2.1483 -0.9321 0.8757 -2.8259 2.0782 1.0493 3.1425 -0.2289 0.0940 -3.6641 1.4243 3.2292 1.0777 -1.5741 -1.1898 0.2438 -2.4938 1.0241 -4.2961 3.6605 2.1257 -1.1878 -2.0239 0.9079 -3.0059 0.2556 3.1507 -2.2146 -0.0800 1.9792 1.1668 -1.6126 0.2588 -3.5777 2.3709 2.1276 3.1204 -0.2555 -1.2554 2.0044 -0.9390 -1.9361 4.1581 0.4282 -2.1066 1.9115 -0.8259 -3.4346
4.4704 1.3960 -3.4987 4.7161 1.0193 -1.0917 3.4504 -3.1168 -3.5026 3.1932 -3.6194 -1.1225 -1.7304 -2.2016 -1.9970 -4.4586 3.3839 5.2099 -0.7754 2.5219 2.0141 -5.8366 1.5750 5.1234 -1.5098 -2.0072 0.7347 5.1814 -0.7918 -2.6958 4.8614 -1.9835 -1.8214 -1.5460 0.3161 0.5490 -3.5537 0.1874 1.8224 0.4568 0.6033 -2.1081 -4.3779 0.6900 2.9048 1.8434 0.9330 -2.3319 -2.6890 2.3765 3.3420 1.1235 -1.6922 -1.7825 -1.3085 -0.9749 -1.4438 -4.8578 2.1862 4.7227 -1.4703 -0.9805 0.0631 -1.9312 1.9038 2.3368 -2.3552 0.7447 1.5644 0.1025 -0.6584 -1.8101 -3.9617 1.7370 3.6408 2.8104 -0.0081 -2.2777 2.4215 -1.4145 -2.0387 4.2651 0.3780 -2.3915 3.4659 -2.5034 -2.1139
5.1661 0.4536 -3.5838 5.3798 0.9756 -1.2048 3.1378 -2.4107 -4.5469 2.8797 -3.8127 -2.5659 -1.3899 -1.8496 -1.4055 -5.5404 1.2692 5.6054 -3.3064 -1.1162 1.9470 -5.4118 3.4969 5.1603 -0.5602 -0.8714 1.1995 5.3779 -1.3623 -1.8953 4.8735 -2.4392 -2.8273 -1.9599 0.8456 0.4523 -2.8057 2.4827 1.9163 1.1311 0.8310 -1.3580 -3.6462 2.8596 3.0425 2.5486 0.9611 -1.5961 -4.1724 0.5158 3.3617 1.2780 -1.4523 -2.1069 -0.9218 -0.5366 -1.1689 -5.1275 2.3411 4.8878 -1.1144 -0.2424 0.3036 -3.3942 0.1761 2.3217 -2.6505 1.1859 1.5833 0.5180 -0.3540 -1.5331 -4.2943 1.9121 3.7468 3.2740 -0.0654 -2.0855 2.5897 -1.3316 -2.4096 4.7729 -0.0043 -2.1931 3.3684 -2.4576 -3.0475
5.8155 0.7261 -2.1280 5.4744 -1.3511 -0.9072 1.9633 -3.2546 -3.6278 3.3459 -3.5142 -1.6418 -1.5419 -0.1012 -2.2292 -6.4081 0.9178 4.6391 -3.8929 0.0136 0.5097 -5.2299 2.4548 5.8342 -1.0539 -1.0885 0.4792 5.1869 -1.2714 -3.3710 4.2407 -2.4153 -3.6672 -1.3599 1.1879 0.8877 -2.0818 1.9635 2.9855 1.6478 1.2606 -1.3104 -3.1200 2.1111 3.9926 3.0580 0.9966 -1.4821 -4.6015 0.8177 2.5766 1.2009 -0.9900 -2.0536 -0.7032 0.5278 -1.2884 -5.3371 1.7139 4.8695 -1.0599 0.0817 0.1110 -3.6367 0.6837 1.6518 -2.3111 1.2456 1.8691 0.7439 0.2972 -1.5586 -4.3293 1.5510 3.8027 3.5000 -0.2145 -1.8792 2.5143 -1.2587 -2.2158 4.9585 -0.5271 -2.0708 3.0170 -2.5640 -2.7777
5.0719 1.2717 -2.4883 5.0235 0.2320 -0.2700 2.6489 -3.4941 -3.3974 3.6879 -3.3004 -1.1896 -1.7937 -1.1883 -2.6504 -3.9183 2.9888 5.7551 -4.2537 0.3487 0.4220 -5.6300 1.5961 5.1943 -2.0800 -1.6549 0.0802 5.3957 -1.1327 -2.2523 4.5937 -2.0539 -3.1391 -1.4584 0.5589 0.4775 -1.6103 1.5100 2.6231 0.8927 0.9468 -1.6711 -2.4028 1.9319 3.7658 2.3291 1.0250 -1.6129 -4.3941 1.2259 2.5771 1.0962 -1.4152 -2.1134 -1.2023 -0.3079 -1.7296 -4.5375 2.0889 4.9562 -1.6294 -0.5784 -0.2984 -3.6523 0.8265 1.5306 -2.2017 0.9218 1.5652 0.2820 -0.2354 -1.8600 -3.7427 1.7957 3.7474 3.1019 -0.0691 -1.7752 2.4491 -1.3582 -2.0836 4.6059 0.0485 -1.7174 3.3289 -2.5285 -2.4458
6.1161 -0.8441 -2.6216 4.8095 -2.7689 -3.3266 0.5388 -0.3530 -3.8456 1.7819 -2.4329 -4.0895 1.4346 -0.4812 2.6102 -6.2098 2.9255 4.0547 -1.5855 1.2354 3.7919 -7.4047 1.8809 2.4245 0.0258 1.5960 1.1020 4.3459 -0.5261 -4.2515 2.8786 -0.2434 -4.4862 -1.4485 -0.1986 1.3796 -3.7257 0.2462 1.0255 3.2012 -0.7325 0.4901 -4.9845 0.8210 1.4651 4.1465 -0.9454 -0.5794 -3.8524 1.6526 3.4429 1.4346 -0.7525 -1.1449 0.8574 -0.6671 1.3260 -6.3454 2.0979 2.9921 -0.2072 0.3996 1.2319 -2.6904 1.1210 3.0266 -2.6051 0.4269 1.7499 1.8834 -0.6272 0.2371 -5.0437 1.5111 2.6193 3.7411 -1.0869 -1.8575 2.3021 -0.9642 -2.1614 4.7119 -1.2922 -2.9929 1.8936 -0.9979 -3.6123
5.2060 0.0068 -3.6091 5.9296 -2.0383 -2.5034 2.1801 0.4607 -4.3179 0.4252 -1.1510 -3.8237 1.4106 -0.6179 2.5877 -6.2068 2.8223 4.1408 -1.5977 1.0737 3.8407 -7.3882 1.8838 2.4372 0.0419 1.5639 1.2146 4.1057 -2.1549 -4.0966 2.6358 -1.9719 -4.4000 -1.4566 -0.2266 1.3545 -3.7253 0.2598 1.0086 3.1898 -0.7376 0.4723 -4.9787 0.8314 1.4652 4.1401 -0.9222 -0.5968 -3.8513 1.5582 3.4870 1.4365 -0.6602 -1.1774 0.8422 -0.7183 1.2896 -6.3358 2.0556 3.0329 -0.2074 0.3646 1.2586 -2.6946 1.0251 3.0571 -2.6091 0.3901 1.7499 1.8755 -0.6085 0.2132 -5.0367 1.4721 2.6475 3.7439 -0.9865 -1.8839 2.3130 -0.8118 -2.1968 4.7047 -1.2894 -3.0035 1.9076 -0.8729 -3.6482
5.4028 -0.2811 -3.5435 5.7201 0.5351 -1.2740 3.3796 -2.5832 -4.1653 2.0454 -3.7097 -2.4734 -1.6176 -0.2112 -2.2501 -6.2376 0.8118 4.8485 -3.8893 -0.1644 0.6348 -5.1050 2.4903 5.8865 -1.0207 -1.0803 0.4891 5.2650 -1.8253 -1.6131 4.2762 -2.9394 -1.8825 -1.4257 1.1968 0.8038 -2.0967 2.0560 2.8851 1.5394 1.2945 -1.5201 -3.0870 2.1929 3.9403 2.9555 1.0695 -1.6984 -4.5384 0.7038 2.6956 1.1679 -1.0252 -2.0690 -0.7742 0.4714 -1.3527 -5.2132 1.6887 4.9715 -1.0852 0.0712 0.0723 -3.6187 0.5833 1.7239 -2.3285 1.2504 1.8304 0.6704 0.2786 -1.6609 -4.2562 1.5306 3.8581 3.4360 -0.1421 -2.0478 2.4831 -1.2432 -2.2844 4.9116 -0.4373 -2.1178 3.0408 -2.5824 -2.6871
5.6982 0.6246 -2.5315 5.4934 -0.6998 -0.4823 2.0468 -3.1679 -3.8510 3.2208 -3.5915 -1.7475 -1.5736 -0.0446 -2.3555 -5.0862 2.5216 5.7682 -3.9441 -0.0950 0.5346 -5.9950 0.5184 5.1803 -1.0880 -0.9367 0.4388 5.3812 -1.7904 -2.6575 4.3172 -2.3270 -3.5848 -1.5362 1.3427 0.6794 -2.2123 2.1772 2.7771 1.6241 1.2396 -1.3429 -3.1662 2.2185 3.8736 3.0331 0.9477 -1.4329 -4.5739 0.6804 2.6396 1.1781 -0.9886 -2.1537 -0.7297 0.5742 -1.4159 -5.2109 1.4328 4.9744 -1.1327 0.2061 -0.0051 -3.6821 0.6387 1.6354 -2.4288 1.3744 1.7172 0.7164 0.2976 -1.6497 -4.3038 1.4999 3.8113 3.4817 -0.2625 -1.8288 2.4967 -1.2808 -2.2475 4.9641 -0.5437 -1.8963 3.0117 -2.5661 -2.8469
5.7245 -1.0370 -2.4573 4.0174 -1.8736 -4.0086 2.1343 2.1347 -1.7207 0.4055 0.8614 -2.9043 0.4311 -3.5973 1.4872 -5.4708 3.5839 3.5933 -2.0009 0.5376 -0.1638 -6.1492 3.0464 1.4874 -1.6534 -2.1102 0.5550 4.1408 0.5304 -3.4448 2.6912 0.8435 -3.7358 -0.9599 -0.5898 2.1935 -2.5065 0.6703 3.4330 2.6768 -2.4951 0.1604 -3.6261 1.5924 3.4951 3.5914 -2.1653 -0.8999 -3.5732 1.7326 1.0746 1.2780 -0.6697 -0.5520 0.5961 -2.1863 1.4234 -5.3576 2.9357 2.4110 -0.8038 -1.6411 1.3058 -2.5458 0.8683 1.0255 -2.0225 0.2667 2.2432 1.5233 -1.8197 0.3097 -4.1418 2.1031 2.3613 3.3394 -1.1525 -1.7535 2.1234 -0.3373 -1.5572 4.2805 -0.8746 -2.8956 1.8577 0.8423 -2.4656
5.2750 0.7397 -3.5202 5.4275 -0.2217 -1.2931 2.2357 -3.8182 -1.7959 3.7310 -2.6389 -0.2873 -1.8243 -0.5749 -2.4472 -4.9357 2.2392 5.7183 -1.0725 2.7332 2.6762 -6.2007 0.5273 4.9166 -1.2112 -1.1754 0.3092 4.9962 -1.6673 -3.2641 4.2913 -2.8752 -2.6842 -1.6098 1.1127 0.4942 -3.6918 0.5166 1.4778 1.1395 1.1238 -2.4554 -4.5967 0.5613 2.6107 2.5605 0.9888 -2.6858 -3.0353 2.0430 3.7318 1.1045 -1.1886 -1.7681 -1.0078 0.2424 -1.6388 -5.2436 1.2794 4.8155 -1.2764 -0.0515 -0.1799 -2.2030 1.9968 2.6770 -2.5160 1.1734 1.5192 0.4322 0.0826 -1.9848 -4.2772 1.2839 3.7002 3.2127 -0.1579 -2.4014 2.4381 -1.3217 -1.9311 4.6920 -0.3315 -2.6145 3.1658 -2.6209 -1.6951
5.4896 -1.4613 -3.3196 4.7721 -3.6042 -2.3878 2.9959 1.1421 -3.8841 0.8201 0.0339 -3.8150 1.3237 1.6773 1.4520 -6.8124 1.6830 4.2582 -2.1300 2.0037 0.6161 -7.0602 2.0240 2.0195 -0.8380 -0.5591 0.2203 3.3185 -2.4792 -3.9885 2.7826 -1.1917 -4.5689 -0.9666 0.1683 2.4254 -2.9932 0.1381 3.6153 3.0064 -1.1530 0.6062 -4.3785 0.5477 3.7701 3.7955 -1.7695 -0.4354 -4.1347 1.9350 1.7975 1.8365 0.0764 -1.1068 1.1509 0.2832 1.3430 -6.3667 1.7300 2.9814 -0.3198 -0.0810 1.2245 -2.8599 1.5364 1.6495 -2.2676 0.5704 2.5660 2.0296 -0.2875 0.2872 -4.9266 1.4204 2.9033 3.5895 -1.4853 -1.7385 2.5601 -0.4905 -2.0982 4.2803 -2.2410 -2.8411 2.3031 -0.1665 -3.5519
4.7001 -0.5022 -3.9747 4.0439 1.7676 -3.3386 3.8787 -3.2468 -1.7174 3.3231 -2.2316 0.4372 -1.8404 -2.4763 -2.0701 -5.6021 1.6593 5.0011 -0.3992 1.9256 2.0813 -4.2085 3.4502 5.1914 -1.8146 -2.0566 0.6587 4.8245 0.2533 -1.6036 4.9111 -1.1462 -1.0465 -1.6736 0.2401 0.2872 -3.6664 0.4202 1.5611 0.2177 0.0028 -2.9174 -4.3718 0.9489 2.7109 1.5652 0.3871 -3.2560 -2.3400 2.0998 3.3687 1.1349 -1.6125 -1.3756 -1.4018 -1.2351 -1.5741 -4.5120 2.3898 4.6663 -1.6398 -1.0958 -0.0852 -1.6944 1.6122 2.2938 -2.3692 0.7215 1.3626 -0.0028 -0.9446 -1.9911 -3.7344 1.7408 3.5932 2.6309 -0.1918 -2.6663 2.4093 -1.2712 -1.6834 4.0279 0.3171 -2.8903 3.6038 -1.9254 -1.0234
4.7476 1.3086 -1.4806 4.7360 -0.6802 -2.9110 0.2096 1.2766 -2.4272 -0.0909 -0.9073 -3.4928 0.0154 -3.9650 0.5058 -4.2873 4.1157 1.6036 -0.5527 1.5179 3.5284 -5.4211 2.7259 0.2036 -1.5605 -2.9995 2.5413 3.1048 1.1297 -3.2682 1.9752 0.3280 -3.8737 -0.5803 -0.9278 2.2744 -2.4840 -0.2414 1.0056 2.5856 -1.6855 0.7936 -3.4751 0.7726 0.6957 3.4067 -0.8733 -0.0761 -2.4353 2.2188 2.3417 0.7781 -1.4202 -0.7798 0.4897 -2.8842 1.2847 -4.4955 2.9366 0.9723 -0.6753 -2.2890 2.0645 -1.5264 1.2708 2.6278 -1.5540 -0.0182 1.9550 1.3165 -1.9672 0.4531 -3.4551 1.9554 1.3378 2.9348 -0.3894 -1.2459 1.5208 -0.6396 -1.5955 3.8456 0.3311 -2.2118 0.9271 -0.0002 -2.8267
5.5796 -0.8154 -3.3506 5.9839 -0.6824 -0.9558 2.9826 -2.1411 -4.4805 1.2494 -3.1280 -3.0900 -1.1431 1.1724 -1.9905 -5.6146 1.6661 5.7008 -3.4543 -0.0024 0.3719 -6.4439 -0.0795 4.5014 -0.5309 -0.3878 0.6703 4.8328 -2.6283 -1.8397 3.5633 -3.2725 -2.3533 -1.3634 1.7568 1.0449 -2.4668 2.2182 3.0735 2.2822 1.4226 -0.9801 -3.5711 1.9949 3.9916 3.5639 0.7992 -1.2210 -4.5111 0.4281 2.4023 1.2387 -0.4622 -2.0664 -0.1806 1.3588 -0.9765 -5.6303 0.8221 4.6434 -0.6967 0.7778 0.3241 -3.4896 0.6415 1.5565 -2.3971 1.5355 1.9149 1.1496 0.8017 -1.3521 -4.5529 1.1273 3.6783 3.6607 -0.3923 -1.8471 2.4288 -1.0428 -2.3314 4.9691 -1.1241 -1.9978 2.5616 -2.3642 -3.0409
6.0332 0.0475 -2.0658 5.2656 -1.7028 -0.5620 1.4419 -3.2339 -3.0977 2.7132 -3.4483 -1.0358 -1.0755 1.4324 -2.6695 -4.7446 1.1497 6.0100 -4.0896 1.4683 0.1026 -6.2306 0.1797 4.5823 -1.6561 -0.4284 -0.4818 5.0033 -1.9417 -3.0184 3.8457 -2.9054 -3.1626 -1.3658 1.5676 0.6954 -1.8842 1.3137 2.9855 2.0739 1.5572 -1.4594 -2.8657 1.1080 4.0378 3.3951 0.9783 -1.5433 -4.6141 1.2062 2.3603 1.1594 -0.6230 -1.9379 -0.3719 1.3756 -1.4524 -5.1619 0.7338 4.7917 -1.1950 0.7037 -0.3759 -3.6993 1.3732 1.3901 -2.2780 1.3913 1.7003 0.9848 0.7862 -1.6197 -4.1794 1.0679 3.7423 3.5707 -0.3422 -1.7562 2.3855 -1.1907 -1.9893 4.9324 -0.9774 -1.8512 2.6070 -2.6465 -2.3195
6.0837 -1.6629 -1.6095 4.3389 -3.3514 -1.7529 1.1519 -0.9021 -4.4382 1.5976 -2.9547 -3.2114 -0.1226 2.3077 -0.9013 -6.4979 1.4501 4.7815 -2.8796 0.6341 0.1245 -6.8605 -0.1861 3.2396 -0.2261 -0.3738 1.0671 4.7476 -1.7923 -3.6407 3.4219 -1.7567 -4.3697 -0.9211 1.7044 1.8435 -2.5419 1.8161 3.5461 2.9418 0.7191 0.0405 -3.8903 1.5674 4.0266 3.9273 -0.2009 -0.4780 -4.4668 0.7301 1.8263 1.4731 0.0522 -1.7551 0.6675 1.6541 0.0666 -6.1507 0.6837 3.7215 -0.2030 0.8534 1.0185 -3.2137 0.9462 1.3934 -2.1944 1.4763 2.2900 1.7410 0.8270 -0.5532 -4.8209 1.0543 3.1994 3.6702 -0.9724 -1.5542 2.3814 -0.8141 -2.2551 4.6816 -1.9241 -2.1326 2.1639 -1.5847 -3.5332
3.9208 0.6294 -4.3967 3.7215 1.9483 -2.3403 3.9479 -2.8602 -1.0171 3.2029 -1.4313 0.8312 -1.6050 -3.1406 -1.9408 -5.3992 2.6081 4.3605 -0.0386 1.0441 2.1662 -3.4421 3.4204 5.1868 -2.4582 -2.3645 0.5269 4.8966 -0.2243 -2.3334 4.6874 -0.5195 -0.8662 -1.5851 -0.2263 0.2488 -3.5425 0.5171 1.3579 0.0099 -0.4167 -2.9883 -4.1619 1.2486 2.4437 1.2905 0.1688 -3.2978 -1.9513 1.8174 3.2612 1.0773 -1.6451 -1.2055 -1.4533 -1.7850 -1.5884 -4.0493 2.7133 4.3966 -1.8697 -1.5235 -0.1493 -1.3826 1.1201 2.2611 -2.2019 0.4272 1.2789 -0.1050 -1.2878 -1.9728 -3.4045 1.8806 3.3600 2.3921 -0.1168 -2.5721 2.2829 -1.0843 -1.4596 3.7119 0.5359 -2.8961 3.5087 -1.4534 -0.6552
4.8347 1.2384 -2.8730 4.6858 0.7641 -0.4873 2.5442 -3.6686 -1.0368 3.4823 -2.0161 0.4874 -1.8797 -1.4166 -3.1958 -2.9104 2.2652 5.8285 -4.0172 1.2824 0.0486 -5.0257 2.0586 5.0130 -2.9939 -1.4464 -0.6736 5.1143 -1.0448 -2.1135 4.4461 -2.3564 -1.7710 -1.4672 0.1472 0.0724 -1.3299 0.5648 2.3824 0.6240 0.7657 -2.6828 -1.9240 1.0626 3.6107 2.0437 0.9721 -2.5402 -3.9016 1.6717 2.3465 0.9016 -1.4089 -1.6692 -1.4249 -0.4889 -2.2426 -3.8154 1.9841 4.8624 -2.0493 -0.6860 -0.8696 -3.3512 1.1934 1.2182 -2.0376 0.5720 1.2370 0.0600 -0.3769 -2.2572 -3.1599 1.5982 3.5973 2.8343 0.0461 -1.9606 2.2308 -1.2208 -1.5018 4.3261 0.2261 -1.8589 3.1599 -2.2822 -0.9702
5.4627 -0.9691 -3.2866 5.8549 0.0906 -1.1304 3.0551 -2.9582 -3.6920 1.4934 -3.5426 -1.9208 -1.2787 1.1632 -2.7281 -4.5811 1.3417 6.0897 -4.1673 1.1868 0.1491 -6.0546 0.1709 4.8074 -1.6310 -0.5733 -0.3782 4.9845 -2.1717 -1.1779 3.8100 -3.1107 -1.3385 -1.4372 1.5301 0.6186 -1.8601 1.4687 2.9410 1.9095 1.5510 -1.6696 -2.7861 1.2925 4.0476 3.2599 1.0486 -1.7658 -4.5899 1.0816 2.4408 1.1166 -0.7038 -1.9972 -0.5155 1.2250 -1.5483 -5.0173 0.8057 4.9261 -1.2461 0.5917 -0.3848 -3.7248 1.2266 1.4227 -2.2998 1.3837 1.6712 0.8659 0.7081 -1.7472 -4.1000 1.1130 3.8112 3.5114 -0.2657 -1.9372 2.3738 -1.1940 -2.0881 4.9074 -0.8300 -1.8830 2.6847 -2.6603 -2.2518
2.9140 1.9233 -3.6831 2.9386 2.2830 -1.2610 4.1436 -2.3725 -2.4928 3.7640 -2.3862 -0.0740 -0.9075 -3.6878 -0.6538 -3.4825 4.3586 2.8468 -1.4900 -1.2470 3.5751 -2.5085 3.6329 4.7714 -3.5159 -1.6409 -0.7874 4.4329 0.6204 -2.2949 4.5725 -0.3491 -1.1427 -1.8955 -1.4191 0.8636 -2.6062 0.8652 0.8428 -0.4263 -0.3852 -2.2117 -2.8694 2.0940 1.5684 0.6607 0.5277 -2.4675 -2.1912 0.9794 3.6094 1.1789 -1.9376 -1.3120 -1.3203 -2.4773 -1.2456 -2.8658 3.4332 3.6197 -2.3667 -1.8001 -0.3802 -1.9495 -0.1555 2.9288 -2.1765 -0.2335 1.4936 -0.1953 -1.5608 -1.6000 -2.6821 2.1541 2.9009 1.9367 0.2131 -2.1590 2.2189 -1.1183 -1.5854 3.0421 1.2233 -2.3426 3.6462 -1.5374 -1.3266
3.2133 1.0533 -4.2504 3.3344 1.9794 -2.0047 3.8441 -2.1535 0.4588 3.5868 0.2608 0.6071 -1.6766 -3.4819 -1.8371 -3.0271 4.2512 3.4003 -1.2625 1.0748 0.0438 -3.5600 3.0125 5.2351 -2.9340 -1.0510 -1.2405 4.6137 -0.0634 -2.6049 4.8111 -0.7641 -1.2785 -2.1462 -1.4758 0.9117 -3.0714 -0.4519 2.8034 -0.0559 -1.1609 -2.6518 -3.3257 0.7239 3.6155 1.0225 -0.3028 -3.0756 -2.1881 2.0585 1.9415 1.2556 -1.7489 -0.7110 -1.1025 -2.5965 -0.8944 -3.2047 3.0876 4.0685 -2.1712 -1.6162 -0.4629 -1.9569 0.9644 1.1949 -2.4466 -0.3424 1.6156 0.0341 -1.8390 -1.4942 -2.9167 1.9348 3.1945 2.1421 -0.1681 -2.3368 2.2834 -0.9611 -1.0998 3.3040 0.6779 -2.7812 3.6009 -0.9017 -0.3669
4.1157 0.6133 -3.1832 2.6093 2.4108 -2.5215 4.4823 -1.9257 -1.3496 3.3181 -2.2242 0.7669 -1.9646 -3.1000 -2.4871 -2.2568 2.9824 5.1254 -2.1690 1.0162 -0.5015 -3.3374 4.0762 3.4463 -3.4448 -1.4767 -0.9438 3.8356 1.2238 -0.8008 3.9689 0.0162 0.0991 -1.8520 -1.5338 0.7491 -1.9644 -0.4513 2.8194 -0.2719 -0.6953 -2.5593 -2.1749 0.7357 3.6262 0.8405 0.2064 -2.7296 -2.3715 2.0249 1.5851 1.0835 -1.9668 -1.0143 -1.3291 -2.5961 -1.3268 -2.7211 3.1054 3.8596 -2.3375 -1.7949 -0.5200 -2.1888 0.9179 0.8432 -2.0236 -0.3863 1.4756 -0.1734 -1.7318 -1.7088 -2.3712 1.9301 3.0373 1.9966 0.0318 -2.0574 2.1399 -1.1386 -1.1712 3.1169 1.0342 -2.1234 3.4447 -1.3037 -0.4347
2.8160 2.0346 -3.2920 3.0159 2.0717 -0.8717 3.6658 -2.6560 -0.0848 3.3996 -0.4585 0.9178 -1.8831 -3.2738 -2.4401 -2.6840 4.1737 3.0408 -2.0806 0.8625 -0.5453 -2.2908 3.1204 5.0185 -3.4815 -1.6812 -0.9257 4.2961 0.4221 -2.2177 4.5514 -0.7200 -1.2565 -1.9033 -1.6635 0.7818 -2.0323 -0.5212 2.8190 -0.3602 -0.7079 -2.5123 -2.1447 0.7032 3.5902 0.6940 0.2716 -2.6368 -2.2037 1.9422 1.5086 1.0512 -1.9277 -0.9785 -1.3063 -2.6850 -1.2932 -2.3959 3.0920 3.8020 -2.3628 -1.9413 -0.4937 -2.1012 0.8038 0.8011 -2.0485 -0.4902 1.4722 -0.2078 -1.7540 -1.6815 -2.2433 1.8887 2.9611 1.8396 0.1646 -1.9322 2.0442 -1.0180 -1.0739 2.9717 1.1449 -2.0704 3.3845 -1.1974 -0.4068
4.0195 -0.3834 -4.2261 2.9307 1.5617 -3.2554 2.7781 0.1247 1.3592 2.1562 1.8346 -0.2513 -0.3753 -4.0047 0.2577 -3.8874 4.1621 2.3825 -2.0065 0.6696 -0.5646 -3.3020 3.5993 4.5089 -3.0399 -2.1020 -0.6257 4.6163 0.2807 -1.9596 4.2627 0.5652 -0.5151 -1.6053 -1.5714 1.1291 -2.2424 -0.2372 2.9480 0.6277 -2.3950 -2.5289 -2.6746 1.0327 3.5051 1.6933 -1.6015 -3.1021 -2.6245 1.9659 1.2686 1.0634 -1.3236 -0.4143 -0.8251 -3.0197 -0.6388 -3.3580 3.3382 3.3170 -1.9463 -2.1698 -0.0694 -2.2339 0.7839 0.7598 -2.0748 -0.3828 1.6189 0.2986 -2.2477 -1.2341 -2.8789 2.0882 2.6956 2.3509 -0.6769 -2.3713 2.0227 -0.5339 -0.9407 3.4566 0.1769 -2.9314 2.7981 0.4659 -0.1216
4.8196 -0.3076 -2.7048 3.2200 0.1441 -4.4814 4.1107 0.2098 0.2923 1.9602 1.0656 1.0432 -0.2066 -4.0092 0.5578 -4.0492 4.1397 2.1120 -2.0246 0.5296 -0.5947 -3.4273 3.7519 4.2676 -2.9334 -2.2779 -0.4436 3.2356 1.5871 -2.5287 2.8449 1.8348 -1.0873 -1.5109 -1.5594 1.2515 -2.1988 -0.1290 2.9757 0.7960 -2.6042 -2.3141 -2.6869 1.1563 3.4427 1.8183 -1.8033 -2.9505 -2.6995 1.9248 1.1435 1.1147 -1.2973 -0.3152 -0.6818 -3.1042 -0.4078 -3.4782 3.4074 3.0969 -1.8340 -2.2591 0.1045 -2.2549 0.7289 0.7190 -2.0327 -0.3622 1.6593 0.4222 -2.3415 -1.0502 -2.9469 2.1392 2.5606 2.4273 -0.7911 -2.2978 2.0675 -0.5352 -0.8911 3.3971 0.1435 -2.9717 2.7315 0.6183 -0.1877
4.0473 0.0331 -4.0735 3.1301 1.8257 -2.7115 2.7347 -0.5330 1.4987 2.3251 1.5318 0.2876 -0.7411 -3.9544 -0.3643 -2.6781 3.2583 4.7384 -2.0100 0.8075 -0.6275 -3.7504 4.0982 2.9109 -3.2385 -1.7597 -1.0285 4.6574 0.1417 -1.7135 4.3018 0.1389 -0.2406 -1.8575 -1.6256 0.8369 -2.2910 -0.4060 2.7890 0.4410 -1.9394 -2.8374 -2.5805 0.8413 3.4717 1.5929 -1.1576 -3.2306 -2.4349 1.9808 1.3372 0.9411 -1.3984 -0.5426 -1.0897 -2.8191 -1.1172 -3.0954 3.2203 3.4515 -2.1769 -1.9938 -0.4557 -2.1925 0.8172 0.7087 -2.1499 -0.4374 1.4497 0.1042 -2.0402 -1.5402 -2.6343 1.9931 2.7776 2.3224 -0.4801 -2.3199 1.9803 -0.6122 -0.8910 3.5154 0.3596 -2.6878 2.8271 0.1094 0.1240
4.8043 -0.2886 -2.5997 3.2773 0.6482 -4.2425 4.1153 -0.3133 0.4477 2.0418 0.5639 1.3693 -0.5655 -4.0404 -0.0249 -2.8674 3.4745 4.5019 -1.9486 0.6565 -0.6483 -3.8839 4.1529 2.5787 -3.1368 -1.9906 -0.8305 3.3954 1.6697 -2.0400 3.0158 1.6604 -0.5739 -1.7457 -1.6475 1.0006 -2.2702 -0.3004 2.8448 0.5805 -2.2359 -2.6391 -2.6275 0.9827 3.4211 1.6710 -1.4143 -3.1160 -2.4694 1.9605 1.2089 0.9938 -1.3804 -0.4247 -0.9493 -2.9724 -0.8547 -3.2296 3.3334 3.2055 -2.0625 -2.1369 -0.2520 -2.1643 0.7630 0.6788 -2.0951 -0.4287 1.5154 0.2196 -2.1941 -1.3452 -2.7100 2.0751 2.6389 2.3710 -0.6197 -2.2795 2.0241 -0.6178 -0.8459 3.4318 0.3345 -2.7629 2.7841 0.3055 0.0682
4.7830 0.3780 -3.6288 4.4647 1.6117 -1.5288 2.7186 -3.1624 0.0230 3.4329 -0.9817 0.8689 -1.7596 -2.0922 -2.9258 -2.5087 2.9791 5.3760 -4.5726 -0.2313 0.7610 -4.1874 1.4571 5.5617 -2.4544 -1.8183 -0.2597 5.1860 -0.7153 -1.5047 4.5312 -2.0136 -1.1095 -2.1757 0.4977 -0.4460 -1.5899 1.6908 1.5204 0.5474 0.2223 -3.1232 -1.8843 2.0806 2.8944 1.9592 0.5183 -3.1075 -3.9789 0.8791 2.7272 0.9212 -1.3556 -1.3335 -1.4378 -0.9020 -2.2454 -3.3146 2.0011 4.9009 -2.0613 -0.8244 -0.8649 -3.6982 0.5209 1.4623 -2.4329 0.8857 0.8443 0.0310 -0.6620 -2.2532 -3.0296 1.6842 3.4843 2.7889 -0.0551 -2.2101 2.2425 -1.0675 -1.2847 4.2653 0.2678 -2.2062 3.2141 -1.7932 -0.3924
4.0099 0.4806 -3.6022 2.8343 2.1850 -2.2950 3.0377 -1.9886 1.1349 2.6343 0.4251 1.1677 -1.0741 -3.8415 -0.8830 -2.0530 1.9327 5.1811 -2.1607 2.1899 -0.7801 -2.8799 3.7268 4.0473 -3.4562 -2.5395 -0.3216 4.4033 0.6783 -1.2036 4.3447 -0.5632 -0.3465 -2.3425 -0.5461 -0.6319 -2.2723 -0.4070 1.7558 0.1065 -1.2303 -2.9324 -2.3089 0.4128 2.9523 1.2669 -0.3846 -3.1029 -2.1821 2.3825 1.5444 0.8402 -1.6587 -0.6759 -1.3658 -2.6080 -1.5100 -2.4439 2.5858 4.0614 -2.4760 -1.9159 -0.7288 -2.1880 1.6157 0.4403 -2.2548 0.1657 0.5361 -0.1219 -1.8271 -1.7501 -2.2524 1.7549 2.8561 2.1365 -0.1633 -2.0921 1.9232 -0.8639 -0.8123 3.3263 0.7496 -2.2735 2.9686 -0.7476 0.2645
2.9959 0.4711 -4.6375 2.8197 2.0015 -2.7534 3.9347 -1.0900 0.7983 3.2302 1.1729 0.2462 -1.1817 -3.9947 -1.0866 -2.8421 4.5527 2.1677 -3.2363 -1.2184 3.6581 -2.7825 3.8707 4.3392 -2.7898 -1.7080 -1.0725 4.4795 0.1566 -2.7357 4.7260 -0.0855 -1.2628 -2.1506 -1.6352 1.1591 -1.9949 0.7251 0.8521 0.0853 -1.7624 -2.4590 -2.1829 2.0648 1.3704 1.0190 -0.8822 -3.1176 -3.1008 1.0990 3.3965 1.3804 -1.5283 -0.4366 -0.7705 -2.8411 -0.3694 -2.7869 3.6161 3.1445 -2.0125 -2.0013 -0.1682 -2.9057 -0.1419 2.9143 -2.3423 -0.3480 1.5890 0.2319 -2.0584 -1.1550 -2.7348 2.2517 2.5837 2.0583 -0.3393 -2.4522 2.2716 -0.7076 -1.0384 3.0692 0.5520 -3.1218 3.5125 -0.1921 -0.3523
3.9976 -0.6362 -4.1843 2.1363 0.9543 -4.2391 3.9069 0.2767 0.3695 1.7801 1.4667 0.6092 0.2554 -3.8878 0.9292 -4.3848 3.9494 1.4079 -1.2578 -0.4005 3.9708 -2.9402 4.3736 3.1174 -2.7956 -2.7432 -0.0197 3.8959 1.1456 -2.5267 3.1049 1.7906 -1.4107 -1.4520 -1.6374 1.5174 -2.4527 0.3439 0.6248 0.7039 -2.6469 -2.1790 -2.9412 1.6965 0.8287 1.6008 -1.8314 -2.9674 -2.3649 1.4897 3.1743 1.1334 -1.1954 -0.3060 -0.4407 -3.1763 -0.0613 -3.3853 3.6249 2.2608 -1.6898 -2.4866 0.4525 -1.8866 0.2501 2.9699 -1.9599 -0.3713 1.6561 0.4544 -2.3336 -0.8960 -2.9398 2.2331 2.0636 2.2120 -0.7462 -2.4439 1.9831 -0.4237 -1.0182 3.0463 0.1655 -3.3140 2.6804 0.7561 -0.3857

>  <OB_ATOM_TYPES> (4lbdA1)
C.3 C.3 C.3 C.3 O.3 O.co2 F O.co2 O.2 C.3 C.3 N.am C.ar C.ar C.ar C.ar C.ar C.ar C.3 C.2 C.2 C.ar C.ar C.ar C.ar C.ar C.ar C.3 C.3

>  <ENSEMBLE_RMSD> (4lbdA1)
0.714 0.780 0.796 0.897 1.001 1.090 1.435 1.485 1.513 1.553 1.634 1.643 1.652 1.665 1.672 1.688 1.745 1.777 1.789 1.795 1.829 1.945 2.000 2.060 2.064 2.072 2.080 2.180 2.219 2.265 2.275 2.311 2.328 2.375 2.382 2.402 2.449 2.455 2.518 2.553 2.652 2.718 2.806 2.810 2.817 2.826 2.833 2.951 2.982 3.068

$$$$
