
 OpenBabel03071213D

 12 12  0  0  0  0  0  0  0  0999 V2000
   17.0720   56.0530   52.3160 O   0  0  0  0  0
   14.6450   55.7290   55.8740 O   0  0  0  0  0
   12.2520   57.2490   56.2020 O   0  0  0  0  0
   11.2010   56.7160   53.5980 O   0  0  0  0  0
   13.2190   57.7380   52.0030 O   0  0  0  0  0
   15.8590   56.5790   51.9250 C   0  0  0  0  0
   15.3160   57.1410   54.1220 O   0  0  0  0  0
   14.4720   56.9750   55.3190 C   0  0  0  0  0
   13.0680   57.2990   54.9590 C   0  0  0  0  0
   12.5200   56.4060   53.8800 C   0  0  0  0  0
   13.4660   56.4640   52.6520 C   0  0  0  0  0
   14.8860   56.1970   53.0820 C   0  0  0  0  0
  1  6  1  0  0  0
  2  8  1  0  0  0
  3  9  1  0  0  0
  4 10  1  0  0  0
  5 11  1  0  0  0
  6 12  1  0  0  0
  7  8  1  0  0  0
  7 12  1  0  0  0
  8  9  1  0  0  0
  9 10  1  0  0  0
 10 11  1  0  0  0
 11 12  1  0  0  0
M  END
>  <MOLID> (5abpA2)
5abpA2

>  <SMILES_CANONICAL> (5abpA2)
OC[C@H]1O[C@H](O)[C@@H]([C@H]([C@H]1O)O)O	

>  <FINGERPRINT> (5abpA2)
0000000000000000000000000000000000000001000000000000000000000000000000000000000000000000000000000000000000000001000000010000000010000000001010000000000001000000000000000000000000000000000000000000000000000000001010000000000000000000000000000000000000000000000000000000000000000000000000000000000100000000000000000010000000000000000000000000000000000000010000000000000010000000000000000000000000000000000000000000000000000010100000000000000000000000000000000000000000000000000000000000000000101010100100000000100000000000000000000000000000000000000000000000000000000000000000000001000101000000001000000000000000000000000000000000000000000001000000000000000000000000001000000000000000000000000000000000000000000101000000000000000000000000000010000000000000000000000100000000000000000000000001000000000000000000000000000000000000000000000000000000000000000000000000000010000000000000000000000010000000000000000000000000001000000000000000000000000000000000000000000000000010100000000000000000000000000000000000000000000000000000

>  <MACCS166> (5abpA2)
000000000000000000000000000000000000000000000000000011001000000000000001000000000100000011100000010000000000100000000001001000100011000011110010010001011010101000111000

>  <OB_MW> (5abpA2)
180.063

>  <OB_logP> (5abpA2)
-3.2214

>  <OB_PSA> (5abpA2)
110.38

>  <OB_MR> (5abpA2)
35.736

>  <OB_ATOMIC_CHARGES> (5abpA2)
-0.2176082051 -0.1869438097 -0.2147572358 -0.217390508 -0.2176051443 0.2142075037 -0.3236184203 0.3023518207 0.2434466105 0.219930334 0.214419815 0.1835672391

>  <MCT_HBD> (5abpA2)
5

>  <MCT_HBA> (5abpA2)
6

>  <ENSEMBLE_TOTAL> (5abpA2)
38

>  <ENSEMBLE_COORDS> (5abpA2)
3.0740 -0.6592 -1.5117 0.6470 -0.9832 2.0463 -1.7460 0.5368 2.3743 -2.7970 0.0038 -0.2297 -0.7790 1.0258 -1.8247 1.8610 -0.1332 -1.9027 1.3180 0.4288 0.2943 0.4740 0.2628 1.4913 -0.9300 0.5868 1.1313 -1.4780 -0.3062 0.0523 -0.5320 -0.2482 -1.1757 0.8880 -0.5152 -0.7457
3.0069 -0.9998 -1.5944 0.7539 -0.8332 2.1197 -1.7677 0.2645 2.3339 -2.7909 -0.0655 -0.3101 -0.7091 1.1482 -1.7273 1.8661 -0.2054 -1.8794 1.2580 0.5784 0.2892 0.4777 0.3964 1.4681 -1.0050 0.5539 1.1754 -1.4436 -0.3350 0.0313 -0.5433 -0.1512 -1.1755 0.8971 -0.3512 -0.7311
2.5437 -1.2650 -2.1282 0.6914 -0.8015 2.1970 -1.8719 0.2749 2.2814 -2.6970 -0.1889 -0.4049 -0.6181 1.1144 -1.7154 2.0371 -0.0106 -1.7017 1.2680 0.6772 0.4426 0.4225 0.4422 1.5671 -1.0396 0.5571 1.1707 -1.3617 -0.3802 0.0258 -0.4008 -0.1610 -1.1272 1.0265 -0.2585 -0.6071
2.4802 0.4155 -2.0612 0.4976 -1.0167 2.2409 -1.7635 0.5941 2.2641 -2.7052 0.1882 -0.3897 -0.4214 0.9207 -1.7836 1.9437 -0.8442 -1.6930 1.3682 0.1994 0.4101 0.5014 0.2184 1.5412 -0.9038 0.6307 1.1386 -1.4387 -0.2712 0.0468 -0.4695 -0.3341 -1.1192 0.9111 -0.7007 -0.5950
3.0519 -0.6133 -1.6007 0.7640 -1.3143 1.9886 -1.3731 1.5290 1.3401 -2.8294 -0.2963 -0.1845 -0.8179 1.1601 -1.4955 1.8008 0.0202 -1.8152 1.1875 0.4330 0.4529 0.4509 0.0143 1.6001 -1.0475 0.1478 1.3870 -1.4664 -0.5404 0.1003 -0.5889 -0.1794 -1.0837 0.8682 -0.3608 -0.6894
3.1159 -0.5227 -1.5508 0.5363 -1.2497 1.8956 -1.7241 0.3051 2.4228 -2.7130 0.6190 -0.2384 -0.9704 -0.4683 -2.2341 1.8667 0.0790 -1.8519 1.3449 0.4384 0.4483 0.5189 0.1324 1.5690 -0.8951 0.6232 1.3191 -1.4630 0.0173 0.0544 -0.5086 0.2462 -1.0990 0.8914 -0.2199 -0.7347
3.1298 -0.1685 -1.6458 0.8774 -0.5256 2.7183 -1.7141 0.4609 2.3406 -2.7881 0.1767 -0.2914 -0.8549 0.7094 -2.3408 1.7730 -0.4893 -1.9094 1.1837 -0.5840 0.3959 0.4862 0.0317 1.4741 -1.0077 -0.1588 1.2785 -1.4272 0.4749 -0.0313 -0.5659 -0.0341 -1.1679 0.9078 0.1068 -0.8208
2.5053 0.4104 -1.9968 0.8731 -0.8773 2.5209 -1.7896 0.4996 2.2988 -2.7240 0.3343 -0.3586 -0.4370 0.6407 -2.2658 1.8890 -0.8276 -1.6806 1.2951 0.1716 0.4427 0.4554 0.1049 1.5891 -1.0149 -0.0990 1.2756 -1.3463 0.4979 -0.0708 -0.5344 -0.2091 -1.1374 0.8282 -0.6463 -0.6173
2.9409 -0.8595 -1.7890 0.9259 -0.0308 2.7697 -1.8351 -0.2757 2.2745 -2.6957 0.7220 -0.2632 -0.9322 0.1002 -2.4058 1.9066 0.1107 -1.8375 1.3130 0.1272 0.4674 0.4287 -0.3484 1.4780 -0.9478 0.2750 1.3147 -1.4867 0.0072 -0.0752 -0.4678 0.4356 -1.1101 0.8501 -0.2635 -0.8234
2.3493 -1.3974 -2.1433 0.3998 -0.8938 2.1265 -1.9969 0.5592 2.1654 -1.7355 -1.3431 0.1253 -0.4199 1.5129 -1.6593 1.9828 -0.1003 -1.7020 1.2543 0.5555 0.4636 0.3355 0.3955 1.5406 -1.0759 0.7579 1.1110 -1.5276 0.0358 -0.1458 -0.4626 0.1619 -1.2193 0.8966 -0.2441 -0.6625
2.5157 0.3274 -2.0060 0.9212 0.2668 2.6774 -1.8525 0.0961 2.2395 -2.6939 0.4502 -0.4643 -0.2695 1.1647 -1.6116 1.8503 -0.9114 -1.8295 1.2982 -0.1644 0.4053 0.3931 -0.3168 1.4957 -0.9426 0.3358 1.1775 -1.5120 -0.2409 -0.1024 -0.5012 -0.1851 -1.2318 0.7932 -0.8223 -0.7498
2.1352 -0.7014 -2.5587 0.6433 -1.2582 2.2218 -1.4350 1.5322 1.2161 -2.6746 -0.3874 -0.3798 -0.6031 1.0589 -1.5380 2.1017 0.1803 -1.4488 1.2150 0.4866 0.7265 0.3509 0.0564 1.7754 -1.1089 0.1579 1.3724 -1.3486 -0.5879 0.0732 -0.3465 -0.2317 -1.0078 1.0706 -0.3057 -0.4523
3.0485 -0.3207 -1.6551 0.7726 -0.7210 2.7647 -1.0213 1.2027 1.7736 -2.8103 0.4330 -0.2135 -0.9721 0.0924 -2.3766 1.8453 0.4294 -1.6827 1.2054 -0.0652 0.5526 0.3165 -0.7607 1.4217 -1.0768 -0.1542 1.3507 -1.5678 -0.2346 -0.0824 -0.5574 0.3525 -1.0456 0.8173 -0.2537 -0.8074
2.1382 -1.2869 -2.3932 0.3288 -0.9100 2.1644 -2.0307 0.6072 2.1290 -1.7217 -1.3395 0.1367 -0.3425 1.4598 -1.6874 2.0639 -0.1064 -1.6110 1.2707 0.5277 0.5362 0.3135 0.3829 1.5816 -1.0733 0.7731 1.1012 -1.4958 0.0328 -0.1549 -0.3991 0.1272 -1.1991 0.9480 -0.2679 -0.6035
2.7303 -0.5214 -2.0575 0.5566 -1.5890 1.8765 -1.2382 1.5467 1.6051 -2.7715 0.1197 -0.2269 -0.7806 -0.2762 -2.2242 1.9337 0.5186 -1.5145 1.2456 0.3787 0.7527 0.3896 -0.1860 1.7439 -1.0701 0.1404 1.4756 -1.4516 -0.2977 0.0733 -0.4835 0.2633 -0.9467 0.9398 -0.0970 -0.5572
3.0427 -0.5468 -1.6276 1.0300 -0.2840 2.6415 -1.7807 -0.6599 1.9625 -2.7724 0.5411 -0.1847 -0.9889 0.4632 -2.3780 1.6820 -0.9294 -1.5017 1.2912 0.4582 0.4241 0.4887 -0.2838 1.3318 -0.9158 0.2923 1.3697 -1.3800 0.7135 -0.0146 -0.5959 0.0054 -1.0963 0.8991 0.2304 -0.9268
2.0884 -0.9767 -2.7252 0.7092 0.4717 2.8343 -1.9531 -0.0938 2.1857 -2.6492 0.0692 -0.5677 -0.3528 1.2481 -1.5689 2.1514 -0.1155 -1.6007 1.3112 0.2253 0.5845 0.3776 -0.1406 1.5973 -1.0209 0.2896 1.1884 -1.3828 -0.3803 -0.1207 -0.3278 -0.1178 -1.1783 1.0488 -0.4792 -0.6287
2.3057 -0.8128 -2.5877 0.6506 -0.0501 2.9152 -1.4128 1.1636 1.4932 -2.7244 -0.2636 -0.5157 -0.5522 1.3473 -1.2931 2.0621 0.1579 -1.5818 1.2144 0.1749 0.6441 0.3623 -0.4645 1.5898 -1.1067 -0.2066 1.2833 -1.4027 -0.6066 -0.1507 -0.3991 -0.0571 -1.1461 1.0030 -0.3824 -0.6505
3.0475 0.2253 -1.6094 0.3437 -1.6975 1.8215 -1.1454 1.4788 2.0738 -2.7007 0.3990 -0.2802 -0.9079 -0.4223 -2.2741 1.6473 0.4222 -1.7216 1.2769 0.1079 0.6050 0.3849 -0.2914 1.6374 -1.0198 0.2330 1.4015 -1.3036 0.4880 -0.0660 -0.5634 -0.5227 -0.9080 0.9404 -0.4202 -0.6799
2.5682 -0.1993 -2.4664 0.8224 -0.3647 2.8324 -1.6572 0.9154 2.0366 -2.7052 0.4047 -0.3378 -0.7437 0.2951 -2.3516 2.1145 0.3603 -1.2443 1.1176 -0.8794 0.5536 0.4575 -0.0484 1.4996 -1.0512 -0.1693 1.3546 -1.4628 -0.2271 -0.1074 -0.3751 0.3443 -0.9862 0.9150 -0.4316 -0.7830
3.0043 0.1546 -1.3716 0.9256 -0.6583 2.6190 -1.3487 0.9258 2.2254 -2.7307 0.4728 -0.2493 -0.9329 0.2431 -2.4777 1.6560 0.5940 -1.3049 1.0190 -1.0922 0.3191 0.5810 -0.1823 1.3265 -0.9245 -0.0076 1.2448 -1.3172 0.5020 -0.1256 -0.7064 -0.3549 -1.2135 0.7746 -0.5971 -0.9922
1.8437 -1.5445 -2.0506 0.9700 -0.6386 2.0280 -1.7440 -0.1399 2.1635 -2.4971 -0.4959 -0.5411 -0.8295 1.4894 -1.6009 1.8828 -0.9319 -0.7716 1.2478 1.0830 0.4154 0.4588 0.5685 1.4874 -1.0028 0.4320 1.1015 -1.1397 -0.4069 -0.1492 -0.3161 0.2067 -1.2648 1.1259 0.3781 -0.8178
2.8476 -1.1886 -1.3759 1.0105 0.3927 2.5287 -1.5791 -0.5981 2.1210 -2.7514 -0.0491 -0.4171 -0.8783 1.6850 -1.4796 1.4332 -1.2232 -1.2681 1.2562 0.6836 0.2146 0.5831 -0.0346 1.2461 -0.9168 0.1580 1.1195 -1.3724 -0.3213 -0.2429 -0.5609 0.3038 -1.3643 0.9283 0.1917 -1.0820
2.4437 0.6841 -1.7790 0.7847 -0.3130 2.7928 -1.0255 1.3292 1.4315 -2.7978 0.1666 -0.3908 -0.4286 1.1963 -1.4394 1.8750 -0.6133 -1.8210 1.2193 -0.2617 0.4834 0.3146 -0.6718 1.5041 -1.0711 -0.0823 1.2851 -1.5640 -0.4605 -0.1001 -0.5459 -0.1966 -1.1943 0.7957 -0.7770 -0.7722
2.1939 -0.2374 -2.5539 0.4520 -1.5887 2.0289 -1.2128 1.5917 1.5239 -2.6903 0.1498 -0.3372 -0.6162 -0.3808 -2.1941 2.1045 0.4467 -1.3167 1.2652 0.3131 0.8766 0.3328 -0.1906 1.8277 -1.0945 0.1751 1.4609 -1.4046 -0.3003 0.0547 -0.3631 0.1993 -0.9241 1.0332 -0.1781 -0.4466
2.9533 0.3369 -1.7836 0.8009 -0.4461 2.7542 -1.8858 0.2229 2.2958 -1.7030 1.4756 -0.1531 -1.0075 0.0471 -2.4213 1.7814 -0.4595 -1.8571 1.1787 -0.5140 0.4455 0.3733 0.0310 1.4869 -1.0822 -0.3568 1.2821 -1.5922 0.0589 -0.0876 -0.6153 -0.4259 -1.1446 0.7983 0.0299 -0.8171
2.3955 -0.3820 -2.5304 0.8771 0.2690 2.8053 -1.6563 -0.6073 2.1542 -2.5779 0.8871 -0.4159 -0.7202 0.0608 -2.3955 2.1611 0.0686 -1.2063 0.9942 -0.7945 0.6927 0.4779 0.2922 1.4493 -1.0358 0.3613 1.3208 -1.4658 0.0671 -0.1038 -0.3237 0.3251 -1.0623 0.8738 -0.5476 -0.7080
2.1098 -0.8654 -2.4909 0.2728 -1.3515 2.0834 -1.2940 1.8052 1.2521 -1.7407 -1.5679 0.0269 -0.4655 1.4511 -1.4831 2.0416 0.0987 -1.4534 1.1614 0.3776 0.7300 0.2034 0.0177 1.7205 -1.2088 0.3864 1.2956 -1.5540 -0.1628 -0.0808 -0.4447 0.0889 -1.0872 0.9186 -0.2781 -0.5131
2.4786 0.7138 -1.3123 1.1034 -0.0976 2.6160 -1.5784 -0.3197 2.2194 -2.4658 1.1615 -0.3221 -0.9630 0.0422 -2.4450 1.9488 -0.5597 -1.6425 0.8980 -1.0731 0.4751 0.6313 0.0578 1.2909 -0.8427 0.4382 1.2717 -1.4632 0.1889 -0.0893 -0.4024 0.2524 -1.1622 0.6552 -0.8045 -0.8997
2.3412 1.0571 -1.5717 0.6696 -0.8390 2.8218 -0.7444 1.3103 1.6738 -2.6293 0.7472 -0.2891 -0.8688 -0.0605 -2.3950 1.9669 -0.3061 -1.6949 1.2302 -0.4396 0.5783 0.2190 -0.8845 1.4774 -1.0396 -0.0399 1.3385 -1.5307 -0.1255 -0.0945 -0.4253 0.2051 -1.0749 0.8113 -0.6246 -0.7695
1.9824 0.6846 -2.4979 0.5316 -0.7317 2.9680 -0.9417 1.3078 1.6827 -2.6294 0.5533 -0.4091 -0.6585 -0.0698 -2.3546 2.2174 -0.1279 -1.3652 1.2371 -0.2805 0.7745 0.1974 -0.8091 1.5912 -1.1063 -0.0648 1.3477 -1.4659 -0.1996 -0.1181 -0.3198 0.2341 -1.0106 0.9557 -0.4962 -0.6086
2.8321 0.3260 -1.5385 0.9080 -0.3817 2.6600 -1.6777 0.5447 2.2489 -1.3605 1.5367 -0.3116 -1.0891 -0.1850 -2.4641 1.4525 0.6204 -1.3823 1.0745 -0.9752 0.3989 0.4650 -0.0967 1.3434 -1.0439 -0.2539 1.2650 -1.5387 0.1401 -0.1149 -0.7625 -0.6360 -1.1634 0.7403 -0.6393 -0.9415
2.8495 -0.4672 -1.9184 0.8192 0.1537 2.8115 -1.9076 -0.9075 1.9119 -1.1972 1.7688 -0.3395 -1.0781 -0.2938 -2.3077 1.5784 0.1604 -1.8641 1.1293 0.2364 0.4786 0.3435 -0.2728 1.5460 -1.1096 0.1534 1.4048 -1.5046 0.4127 -0.0379 -0.7145 -0.4970 -0.9584 0.7918 -0.4470 -0.7269
2.6389 0.4797 -1.9649 1.2873 -0.1768 2.3166 -1.6083 0.6197 2.2572 -2.3921 1.1914 -0.3874 -1.0489 -0.6358 -2.3060 1.9565 0.4189 -0.7227 0.7238 -1.3635 0.3423 0.2488 -0.6591 1.4829 -0.7163 0.4646 1.1694 -1.4630 0.1587 -0.1051 -0.4623 0.0910 -1.2387 0.8357 -0.5888 -0.8436
1.7370 1.3477 -1.0092 0.9048 -0.7771 2.6522 -1.1516 1.0458 2.1380 -2.5166 0.7209 -0.3478 -0.7566 0.0904 -2.5226 1.9131 0.0130 -1.4504 1.0006 -1.3220 0.3767 0.6443 -0.3263 1.3315 -0.8275 0.0267 1.2056 -1.1212 0.5278 -0.1918 -0.6274 -0.4593 -1.2247 0.8011 -0.8877 -0.9574
2.5897 0.4200 -2.2053 0.5709 0.9290 2.0606 -2.0240 -0.1086 2.2903 -1.4952 1.4802 0.0521 -0.7265 0.2845 -2.3237 1.9188 -0.6864 -1.6249 1.1481 -0.8519 0.6117 0.2881 -0.3992 1.6528 -1.1691 -0.5779 1.2655 -1.5169 0.0642 -0.0636 -0.5042 -0.3905 -1.0978 0.9205 -0.1634 -0.6177
2.7895 0.0491 -1.4333 1.0162 0.0999 2.6533 -1.5438 -0.8479 1.8957 -1.1487 1.7892 -0.5400 -1.2508 -0.3184 -2.3467 1.4128 0.3857 -1.4851 0.9563 -0.8957 0.5259 0.5397 0.2103 1.3227 -0.9781 0.3281 1.3330 -1.4989 0.4896 -0.0837 -0.8989 -0.5662 -0.9988 0.6045 -0.7237 -0.8429
1.7429 1.3290 -0.9922 0.9322 -0.5590 2.6477 -1.4945 0.7042 2.1945 -1.1138 1.5818 -0.3877 -1.0052 -0.2103 -2.4974 1.7103 0.0648 -1.6269 1.0722 -1.1723 0.3928 0.5488 -0.2268 1.3217 -0.9668 -0.1943 1.2341 -1.4227 0.2149 -0.1542 -0.7414 -0.6624 -1.1852 0.7382 -0.8697 -0.9472

>  <OB_ATOM_TYPES> (5abpA2)
O.3 O.3 O.3 O.3 O.3 C.3 O.3 C.3 C.3 C.3 C.3 C.3

>  <ENSEMBLE_RMSD> (5abpA2)
0.000 0.178 0.374 0.483 0.506 0.547 0.597 0.610 0.672 0.690 0.701 0.714 0.727 0.737 0.737 0.742 0.760 0.773 0.777 0.786 0.795 0.806 0.808 0.815 0.866 0.881 0.926 0.933 0.949 0.973 0.989 1.029 1.072 1.086 1.097 1.126 1.174 1.242

$$$$
