
 OpenBabel03071213D

 12 12  0  0  0  0  0  0  0  0999 V2000
   17.0720   56.0530   52.3160 O   0  0  0  0  0
   14.6450   55.7290   55.8740 O   0  0  0  0  0
   12.2520   57.2490   56.2020 O   0  0  0  0  0
   11.2010   56.7160   53.5980 O   0  0  0  0  0
   13.2190   57.7380   52.0030 O   0  0  0  0  0
   15.8590   56.5790   51.9250 C   0  0  0  0  0
   15.3160   57.1410   54.1220 O   0  0  0  0  0
   14.4720   56.9750   55.3190 C   0  0  0  0  0
   13.0680   57.2990   54.9590 C   0  0  0  0  0
   12.5200   56.4060   53.8800 C   0  0  0  0  0
   13.4660   56.4640   52.6520 C   0  0  0  0  0
   14.8860   56.1970   53.0820 C   0  0  0  0  0
  1  6  1  0  0  0
  2  8  1  0  0  0
  3  9  1  0  0  0
  4 10  1  0  0  0
  5 11  1  0  0  0
  6 12  1  0  0  0
  7  8  1  0  0  0
  7 12  1  0  0  0
  8  9  1  0  0  0
  9 10  1  0  0  0
 10 11  1  0  0  0
 11 12  1  0  0  0
M  END
>  <MOLID> (5abpA1)
5abpA1

>  <SMILES_CANONICAL> (5abpA1)
OC[C@H]1O[C@H](O)[C@@H]([C@H]([C@H]1O)O)O	

>  <FINGERPRINT> (5abpA1)
0000000000000000000000000000000000000001000000000000000000000000000000000000000000000000000000000000000000000001000000010000000010000000001010000000000001000000000000000000000000000000000000000000000000000000001010000000000000000000000000000000000000000000000000000000000000000000000000000000000100000000000000000010000000000000000000000000000000000000010000000000000010000000000000000000000000000000000000000000000000000010100000000000000000000000000000000000000000000000000000000000000000101010100100000000100000000000000000000000000000000000000000000000000000000000000000000001000101000000001000000000000000000000000000000000000000000001000000000000000000000000001000000000000000000000000000000000000000000101000000000000000000000000000010000000000000000000000100000000000000000000000001000000000000000000000000000000000000000000000000000000000000000000000000000010000000000000000000000010000000000000000000000000001000000000000000000000000000000000000000000000000010100000000000000000000000000000000000000000000000000000

>  <MACCS166> (5abpA1)
000000000000000000000000000000000000000000000000000011001000000000000001000000000100000011100000010000000000100000000001001000100011000011110010010001011010101000111000

>  <OB_MW> (5abpA1)
180.063

>  <OB_logP> (5abpA1)
-3.2214

>  <OB_PSA> (5abpA1)
110.38

>  <OB_MR> (5abpA1)
35.736

>  <OB_ATOMIC_CHARGES> (5abpA1)
-0.2176082051 -0.1869438097 -0.2147572358 -0.217390508 -0.2176051443 0.2142075037 -0.3236184203 0.3023518207 0.2434466105 0.219930334 0.214419815 0.1835672391

>  <MCT_HBD> (5abpA1)
5

>  <MCT_HBA> (5abpA1)
6

>  <ENSEMBLE_TOTAL> (5abpA1)
49

>  <ENSEMBLE_COORDS> (5abpA1)
3.0740 -0.6592 -1.5117 0.6470 -0.9832 2.0463 -1.7460 0.5368 2.3743 -2.7970 0.0038 -0.2297 -0.7790 1.0258 -1.8247 1.8610 -0.1332 -1.9027 1.3180 0.4288 0.2943 0.4740 0.2628 1.4913 -0.9300 0.5868 1.1313 -1.4780 -0.3062 0.0523 -0.5320 -0.2482 -1.1757 0.8880 -0.5152 -0.7457
2.4802 0.4155 -2.0612 0.4976 -1.0167 2.2409 -1.7635 0.5941 2.2641 -2.7052 0.1882 -0.3897 -0.4214 0.9207 -1.7836 1.9437 -0.8442 -1.6930 1.3682 0.1994 0.4101 0.5014 0.2184 1.5412 -0.9038 0.6307 1.1386 -1.4387 -0.2712 0.0468 -0.4695 -0.3341 -1.1192 0.9111 -0.7007 -0.5950
2.1972 -1.1170 -2.4773 0.6340 -0.7987 2.2760 -1.9201 0.2893 2.2495 -2.6437 -0.1459 -0.4661 -0.5034 1.0309 -1.7501 2.1493 -0.0297 -1.5693 1.2889 0.6562 0.5290 0.4005 0.4394 1.6223 -1.0433 0.5627 1.1705 -1.3349 -0.3793 0.0235 -0.3178 -0.2123 -1.0894 1.0934 -0.2956 -0.5187
2.8884 -0.8392 -1.8396 0.7733 -1.2680 2.0466 -1.4333 1.5036 1.3264 -2.7902 -0.3674 -0.2398 -0.8059 1.1719 -1.4799 1.8677 0.1403 -1.7337 1.1849 0.4947 0.5220 0.4255 0.0473 1.6433 -1.0695 0.1318 1.3839 -1.4274 -0.5662 0.0831 -0.5323 -0.1602 -1.0722 0.9190 -0.2886 -0.6400
3.0559 -0.6495 -1.6361 0.5735 -1.1986 1.9593 -1.7473 0.2283 2.4096 -2.7117 0.5965 -0.2604 -0.9389 -0.4416 -2.2423 1.8820 0.1225 -1.8296 1.3417 0.4716 0.4655 0.5115 0.1685 1.5835 -0.9178 0.6094 1.3251 -1.4556 0.0136 0.0431 -0.4952 0.2698 -1.0972 0.9019 -0.1904 -0.7205
3.1298 -0.1685 -1.6458 0.8774 -0.5256 2.7183 -1.7141 0.4609 2.3406 -2.7881 0.1767 -0.2914 -0.8549 0.7094 -2.3408 1.7730 -0.4893 -1.9094 1.1837 -0.5840 0.3959 0.4862 0.0317 1.4741 -1.0077 -0.1588 1.2785 -1.4272 0.4749 -0.0313 -0.5659 -0.0341 -1.1679 0.9078 0.1068 -0.8208
2.9409 -0.8595 -1.7890 0.9259 -0.0308 2.7697 -1.8351 -0.2757 2.2745 -2.6957 0.7220 -0.2632 -0.9322 0.1002 -2.4058 1.9066 0.1107 -1.8375 1.3130 0.1272 0.4674 0.4287 -0.3484 1.4780 -0.9478 0.2750 1.3147 -1.4867 0.0072 -0.0752 -0.4678 0.4356 -1.1101 0.8501 -0.2635 -0.8234
2.3656 -1.3994 -2.1254 0.4046 -0.8965 2.1198 -1.9938 0.5599 2.1683 -1.7405 -1.3416 0.1256 -0.4247 1.5138 -1.6595 1.9780 -0.1009 -1.7069 1.2525 0.5574 0.4585 0.3373 0.3945 1.5381 -1.0751 0.7572 1.1121 -1.5302 0.0370 -0.1445 -0.4670 0.1624 -1.2202 0.8933 -0.2438 -0.6660
2.4946 0.3437 -2.0251 0.9161 0.2349 2.6899 -1.8508 0.1245 2.2371 -2.6940 0.4413 -0.4684 -0.2733 1.1594 -1.6162 1.8634 -0.9088 -1.8206 1.2998 -0.1631 0.4114 0.3891 -0.3226 1.4960 -0.9385 0.3450 1.1739 -1.5094 -0.2429 -0.1011 -0.4974 -0.1902 -1.2305 0.8003 -0.8213 -0.7463
3.1009 -0.2012 -1.4893 0.5258 -1.6646 1.7777 -1.0856 1.5767 1.6088 -2.8146 0.2593 -0.1201 -0.9861 -0.2745 -2.2354 1.8120 0.3491 -1.7101 1.2584 0.2593 0.6067 0.4355 -0.2544 1.6510 -1.0145 0.1625 1.4739 -1.5105 -0.2495 0.0998 -0.5714 0.2422 -0.9819 0.8502 -0.2050 -0.6809
3.0485 -0.3207 -1.6551 0.7726 -0.7210 2.7647 -1.0213 1.2027 1.7736 -2.8103 0.4330 -0.2135 -0.9721 0.0924 -2.3766 1.8453 0.4294 -1.6827 1.2054 -0.0652 0.5526 0.3165 -0.7607 1.4217 -1.0768 -0.1542 1.3507 -1.5678 -0.2346 -0.0824 -0.5574 0.3525 -1.0456 0.8173 -0.2537 -0.8074
3.0557 -0.3083 -1.6389 0.7745 -0.7300 2.7604 -1.0173 1.2046 1.7752 -2.8100 0.4403 -0.2125 -0.9767 0.0858 -2.3764 1.8426 0.4241 -1.6886 1.2052 -0.0668 0.5490 0.3158 -0.7611 1.4185 -1.0761 -0.1515 1.3512 -1.5697 -0.2314 -0.0807 -0.5594 0.3503 -1.0471 0.8154 -0.2562 -0.8102
2.1382 -1.2869 -2.3932 0.3288 -0.9100 2.1644 -2.0307 0.6072 2.1290 -1.7217 -1.3395 0.1367 -0.3425 1.4598 -1.6874 2.0639 -0.1064 -1.6110 1.2707 0.5277 0.5362 0.3135 0.3829 1.5816 -1.0733 0.7731 1.1012 -1.4958 0.0328 -0.1549 -0.3991 0.1272 -1.1991 0.9480 -0.2679 -0.6035
3.0427 -0.5468 -1.6276 1.0300 -0.2840 2.6415 -1.7807 -0.6599 1.9625 -2.7724 0.5411 -0.1847 -0.9889 0.4632 -2.3780 1.6820 -0.9294 -1.5017 1.2912 0.4582 0.4241 0.4887 -0.2838 1.3318 -0.9158 0.2923 1.3697 -1.3800 0.7135 -0.0146 -0.5959 0.0054 -1.0963 0.8991 0.2304 -0.9268
2.0884 -0.9767 -2.7252 0.7092 0.4717 2.8343 -1.9531 -0.0938 2.1857 -2.6492 0.0692 -0.5677 -0.3528 1.2481 -1.5689 2.1514 -0.1155 -1.6007 1.3112 0.2253 0.5845 0.3776 -0.1406 1.5973 -1.0209 0.2896 1.1884 -1.3828 -0.3803 -0.1207 -0.3278 -0.1178 -1.1783 1.0488 -0.4792 -0.6287
2.0380 -0.9718 -2.7405 0.7064 0.4782 2.8381 -1.9516 -0.1160 2.1810 -2.6444 0.0589 -0.5770 -0.3351 1.2576 -1.5577 2.1612 -0.1447 -1.5947 1.3123 0.2415 0.5856 0.3789 -0.1272 1.5974 -1.0239 0.2906 1.1881 -1.3762 -0.3782 -0.1244 -0.3183 -0.1110 -1.1767 1.0528 -0.4780 -0.6193
2.3057 -0.8128 -2.5877 0.6506 -0.0501 2.9152 -1.4128 1.1636 1.4932 -2.7244 -0.2636 -0.5157 -0.5522 1.3473 -1.2931 2.0621 0.1579 -1.5818 1.2144 0.1749 0.6441 0.3623 -0.4645 1.5898 -1.1067 -0.2066 1.2833 -1.4027 -0.6066 -0.1507 -0.3991 -0.0571 -1.1461 1.0030 -0.3824 -0.6505
2.9518 -0.8816 -1.6767 0.9932 0.2182 2.7611 -1.7653 -0.9024 1.7927 -2.7244 0.7268 -0.1876 -0.8392 0.4813 -2.3281 1.7888 -0.0922 -1.8778 1.2392 0.2948 0.4200 0.4814 -0.2074 1.5107 -0.9742 0.2104 1.4067 -1.3253 0.6786 0.0074 -0.6488 -0.1398 -1.0706 0.8227 -0.3867 -0.7580
3.0475 0.2253 -1.6094 0.3437 -1.6975 1.8215 -1.1454 1.4788 2.0738 -2.7007 0.3990 -0.2802 -0.9079 -0.4223 -2.2741 1.6473 0.4222 -1.7216 1.2769 0.1079 0.6050 0.3849 -0.2914 1.6374 -1.0198 0.2330 1.4015 -1.3036 0.4880 -0.0660 -0.5634 -0.5227 -0.9080 0.9404 -0.4202 -0.6799
2.0980 -1.1290 -2.6555 0.6988 0.5957 2.7992 -1.9278 -0.2263 2.1796 -2.6551 0.0214 -0.5724 -0.3583 1.3266 -1.4939 2.1369 -0.1467 -1.6318 1.3108 0.2831 0.5595 0.3946 -0.0827 1.5890 -1.0335 0.2539 1.1886 -1.3723 -0.3916 -0.1385 -0.3300 -0.0613 -1.1869 1.0379 -0.4431 -0.6370
2.5682 -0.1993 -2.4664 0.8224 -0.3647 2.8324 -1.6572 0.9154 2.0366 -2.7052 0.4047 -0.3378 -0.7437 0.2951 -2.3516 2.1145 0.3603 -1.2443 1.1176 -0.8794 0.5536 0.4575 -0.0484 1.4996 -1.0512 -0.1693 1.3546 -1.4628 -0.2271 -0.1074 -0.3751 0.3443 -0.9862 0.9150 -0.4316 -0.7830
3.0043 0.1546 -1.3716 0.9256 -0.6583 2.6190 -1.3487 0.9258 2.2254 -2.7307 0.4728 -0.2493 -0.9329 0.2431 -2.4777 1.6560 0.5940 -1.3049 1.0190 -1.0922 0.3191 0.5810 -0.1823 1.3265 -0.9245 -0.0076 1.2448 -1.3172 0.5020 -0.1256 -0.7064 -0.3549 -1.2135 0.7746 -0.5971 -0.9922
1.8437 -1.5445 -2.0506 0.9700 -0.6386 2.0280 -1.7440 -0.1399 2.1635 -2.4971 -0.4959 -0.5411 -0.8295 1.4894 -1.6009 1.8828 -0.9319 -0.7716 1.2478 1.0830 0.4154 0.4588 0.5685 1.4874 -1.0028 0.4320 1.1015 -1.1397 -0.4069 -0.1492 -0.3161 0.2067 -1.2648 1.1259 0.3781 -0.8178
2.8476 -1.1886 -1.3759 1.0105 0.3927 2.5287 -1.5791 -0.5981 2.1210 -2.7514 -0.0491 -0.4171 -0.8783 1.6850 -1.4796 1.4332 -1.2232 -1.2681 1.2562 0.6836 0.2146 0.5831 -0.0346 1.2461 -0.9168 0.1580 1.1195 -1.3724 -0.3213 -0.2429 -0.5609 0.3038 -1.3643 0.9283 0.1917 -1.0820
2.4787 -0.3849 -2.4509 0.6251 -0.6437 2.9289 -1.1418 1.2115 1.7494 -2.7379 0.3143 -0.3616 -0.7071 0.0421 -2.3552 2.0343 0.4872 -1.4242 1.2219 0.0033 0.7490 0.2862 -0.7111 1.5532 -1.1163 -0.1552 1.3560 -1.4787 -0.2835 -0.1116 -0.4178 0.3352 -0.9979 0.9533 -0.2150 -0.6350
2.4437 0.6841 -1.7790 0.7847 -0.3130 2.7928 -1.0255 1.3292 1.4315 -2.7978 0.1666 -0.3908 -0.4286 1.1963 -1.4394 1.8750 -0.6133 -1.8210 1.2193 -0.2617 0.4834 0.3146 -0.6718 1.5041 -1.0711 -0.0823 1.2851 -1.5640 -0.4605 -0.1001 -0.5459 -0.1966 -1.1943 0.7957 -0.7770 -0.7722
2.1108 -0.6006 -2.7303 0.6096 -0.0973 2.9541 -1.3551 1.2141 1.4457 -2.7008 -0.2061 -0.5396 -0.4911 1.2798 -1.3491 2.1132 0.1211 -1.5088 1.2238 0.1192 0.6951 0.3334 -0.4957 1.6214 -1.1166 -0.1769 1.2865 -1.4026 -0.6039 -0.1411 -0.3599 -0.1165 -1.1288 1.0353 -0.4371 -0.6049
2.9535 0.2050 -1.5694 0.8829 -0.6647 2.6605 -1.3712 0.9414 2.2091 -2.6963 0.5337 -0.2864 -0.9018 0.1587 -2.4780 1.6436 0.6225 -1.2220 1.0280 -1.1004 0.3628 0.5663 -0.1924 1.3607 -0.9360 -0.0044 1.2455 -1.2871 0.5042 -0.1361 -0.6829 -0.3954 -1.1930 0.8010 -0.6082 -0.9538
2.8072 -1.2641 -1.2600 1.0124 0.4533 2.5068 -1.5378 -0.6577 2.0986 -2.7431 -0.0867 -0.4280 -0.8890 1.7250 -1.4231 1.3902 -1.2215 -1.2890 1.2637 0.7031 0.1902 0.6000 -0.0102 1.2309 -0.9064 0.1376 1.1071 -1.3580 -0.3300 -0.2606 -0.5657 0.3412 -1.3687 0.9264 0.2101 -1.1043
2.4749 0.6827 -1.8741 0.8778 -0.3102 2.8098 -1.8395 0.1111 2.2686 -2.4359 1.0991 -0.3470 -0.8791 -0.1499 -2.3955 1.9354 -0.6267 -1.7884 1.3293 -0.3289 0.5117 0.3433 -0.5481 1.5163 -0.8445 0.3726 1.2918 -1.4291 0.1368 -0.0848 -0.3479 0.2332 -1.1381 0.8153 -0.6718 -0.7705
2.3713 -1.0302 -1.9005 0.8184 -0.1136 2.8006 -1.9178 -0.2335 2.2334 -1.9587 1.2038 -0.1276 -0.8680 0.1258 -2.4368 1.9594 0.3218 -1.7713 1.2995 -0.0089 0.5114 0.3309 0.2609 1.5199 -0.9513 -0.5064 1.2329 -1.5109 -0.1472 -0.1337 -0.4133 -0.3150 -1.1687 0.8405 0.4425 -0.7595
2.0672 -1.2515 -2.5928 0.6489 0.2077 2.8148 -2.0539 0.2773 2.1094 -1.9064 -1.2439 -0.2118 -0.1692 1.6716 -1.4514 2.0292 -0.1683 -1.6777 1.2445 0.1185 0.5480 0.2388 -0.1822 1.5136 -1.0460 0.5453 1.1500 -1.5250 0.1271 -0.2318 -0.3998 0.2861 -1.2390 0.8719 -0.3876 -0.7313
2.5869 0.3270 -2.1879 0.7478 -0.6393 2.7985 -1.4553 0.9859 2.1703 -2.6333 0.5048 -0.3904 -0.7090 0.0917 -2.4580 1.7580 0.5852 -1.0661 1.0525 -1.0981 0.5207 0.5237 -0.1788 1.4744 -0.9680 0.0120 1.2600 -1.2362 0.4834 -0.1531 -0.5667 -0.4358 -1.1509 0.8997 -0.6380 -0.8175
2.9533 0.3369 -1.7836 0.8009 -0.4461 2.7542 -1.8858 0.2229 2.2958 -1.7030 1.4756 -0.1531 -1.0075 0.0471 -2.4213 1.7814 -0.4595 -1.8571 1.1787 -0.5140 0.4455 0.3733 0.0310 1.4869 -1.0822 -0.3568 1.2821 -1.5922 0.0589 -0.0876 -0.6153 -0.4259 -1.1446 0.7983 0.0299 -0.8171
2.4928 0.5164 -1.8002 0.1140 -1.4861 2.0485 -0.8934 1.8924 1.2539 -2.0959 -1.3136 0.1066 -0.3133 1.3749 -1.5163 1.7789 -0.7055 -1.7130 1.2012 -0.0299 0.5346 0.2818 -0.1464 1.6156 -1.0663 0.4825 1.2978 -1.6268 0.0203 -0.0398 -0.5747 0.0323 -1.1367 0.7017 -0.6372 -0.6511
2.1098 -0.8654 -2.4909 0.2728 -1.3515 2.0834 -1.2940 1.8052 1.2521 -1.7407 -1.5679 0.0269 -0.4655 1.4511 -1.4831 2.0416 0.0987 -1.4534 1.1614 0.3776 0.7300 0.2034 0.0177 1.7205 -1.2088 0.3864 1.2956 -1.5540 -0.1628 -0.0808 -0.4447 0.0889 -1.0872 0.9186 -0.2781 -0.5131
1.9806 -0.7063 -2.6145 0.2385 -1.3468 2.1299 -1.2839 1.8139 1.2444 -1.7724 -1.5475 0.0187 -0.3893 1.4298 -1.4820 2.0904 0.0223 -1.4035 1.1709 0.3372 0.7516 0.1924 0.0133 1.7331 -1.2093 0.3950 1.2869 -1.5426 -0.1496 -0.0934 -0.4112 0.0684 -1.0827 0.9358 -0.3298 -0.4886
2.5925 0.5288 -2.2639 0.7004 -0.3899 2.8538 -1.9665 0.2276 2.2493 -1.6055 1.4817 -0.1868 -0.8438 0.0120 -2.4116 1.9029 -0.5725 -1.6951 1.1894 -0.5405 0.5693 0.3345 0.0401 1.5514 -1.1096 -0.3573 1.2831 -1.5446 0.0616 -0.1113 -0.5281 -0.4588 -1.1130 0.8785 -0.0327 -0.7250
2.2413 -0.2443 -2.6451 0.7270 -0.1645 2.7314 -1.5397 1.3984 1.7841 -2.1550 -1.2514 -0.3696 -0.1027 1.5854 -1.2294 2.0838 -0.0694 -1.2471 0.8199 -1.0331 0.5422 0.3709 0.0280 1.3748 -1.1373 0.1472 1.2530 -1.6034 0.0465 -0.1897 -0.4582 0.2119 -1.1760 0.7533 -0.6547 -0.8287
2.3412 1.0571 -1.5717 0.6696 -0.8390 2.8218 -0.7444 1.3103 1.6738 -2.6293 0.7472 -0.2891 -0.8688 -0.0605 -2.3950 1.9669 -0.3061 -1.6949 1.2302 -0.4396 0.5783 0.2190 -0.8845 1.4774 -1.0396 -0.0399 1.3385 -1.5307 -0.1255 -0.0945 -0.4253 0.2051 -1.0749 0.8113 -0.6246 -0.7695
2.7242 -0.8378 -2.0679 1.0784 1.2355 1.6423 -1.7659 -0.7766 2.1865 -2.6382 0.8264 -0.2591 -0.7683 0.2901 -2.3020 2.0959 0.1034 -1.2125 0.9801 -0.9144 0.6546 0.4222 -0.0225 1.6127 -1.0681 0.1918 1.4163 -1.5020 0.0137 -0.0241 -0.3732 0.3995 -0.9469 0.8150 -0.5091 -0.6998
2.7134 0.3573 -1.8605 0.8341 -0.4185 2.7333 -1.7054 0.6100 2.2150 -1.3488 1.5193 -0.3589 -1.0024 -0.2547 -2.4595 1.4620 0.6653 -1.2693 1.0891 -0.9710 0.4708 0.4484 -0.1034 1.4042 -1.0600 -0.2299 1.2728 -1.5154 0.1262 -0.1315 -0.7050 -0.6686 -1.1392 0.7899 -0.6319 -0.8774
2.8495 -0.4672 -1.9184 0.8192 0.1537 2.8115 -1.9076 -0.9075 1.9119 -1.1972 1.7688 -0.3395 -1.0781 -0.2938 -2.3077 1.5784 0.1604 -1.8641 1.1293 0.2364 0.4786 0.3435 -0.2728 1.5460 -1.1096 0.1534 1.4048 -1.5046 0.4127 -0.0379 -0.7145 -0.4970 -0.9584 0.7918 -0.4470 -0.7269
1.7678 1.3356 -0.9831 0.9080 -0.7794 2.6457 -1.1489 1.0455 2.1399 -2.5267 0.7102 -0.3369 -0.7614 0.1023 -2.5232 1.9087 0.0108 -1.4645 0.9991 -1.3192 0.3695 0.6453 -0.3253 1.3269 -0.8264 0.0275 1.2057 -1.1288 0.5285 -0.1895 -0.6322 -0.4526 -1.2274 0.7954 -0.8840 -0.9631
1.7370 1.3477 -1.0092 0.9048 -0.7771 2.6522 -1.1516 1.0458 2.1380 -2.5166 0.7209 -0.3478 -0.7566 0.0904 -2.5226 1.9131 0.0130 -1.4504 1.0006 -1.3220 0.3767 0.6443 -0.3263 1.3315 -0.8275 0.0267 1.2056 -1.1212 0.5278 -0.1918 -0.6274 -0.4593 -1.2247 0.8011 -0.8877 -0.9574
2.2189 -1.2687 -1.6371 0.6679 0.3897 2.8639 -0.8946 -1.5575 1.5333 -2.0002 1.4142 -0.2084 -0.9235 0.0979 -2.3957 1.9166 0.1168 -1.6961 1.2002 0.1398 0.5903 0.2228 0.5756 1.5301 -1.0943 -0.1645 1.3302 -1.6028 0.0539 -0.0844 -0.5045 -0.2541 -1.0888 0.7934 0.4569 -0.7373
2.7670 -0.0301 -1.6433 0.9590 0.1400 2.7043 -1.5607 -0.8903 1.8650 -1.1558 1.7831 -0.5291 -1.1937 -0.3297 -2.3435 1.4359 0.4164 -1.4471 0.9798 -0.8494 0.5701 0.5081 0.2371 1.3636 -1.0125 0.3113 1.3394 -1.4996 0.4771 -0.0878 -0.8647 -0.5695 -0.9887 0.6372 -0.6959 -0.8029
1.8549 0.9714 -1.9219 0.8149 -0.2659 2.8547 -2.0241 -0.2786 2.0272 -0.8137 1.7699 -0.5433 -0.9927 -0.4589 -2.3150 1.7435 -0.4376 -1.8103 1.2490 -0.2465 0.5419 0.2947 -0.5108 1.5595 -0.9430 0.3467 1.3522 -1.3071 0.5085 -0.1128 -0.6795 -0.5917 -0.9462 0.8031 -0.8065 -0.6858
1.7429 1.3290 -0.9922 0.9322 -0.5590 2.6477 -1.4945 0.7042 2.1945 -1.1138 1.5818 -0.3877 -1.0052 -0.2103 -2.4974 1.7103 0.0648 -1.6269 1.0722 -1.1723 0.3928 0.5488 -0.2268 1.3217 -0.9668 -0.1943 1.2341 -1.4227 0.2149 -0.1542 -0.7414 -0.6624 -1.1852 0.7382 -0.8697 -0.9472

>  <OB_ATOM_TYPES> (5abpA1)
O.3 O.3 O.3 O.3 O.3 C.3 O.3 C.3 C.3 C.3 C.3 C.3

>  <ENSEMBLE_RMSD> (5abpA1)
0.000 0.483 0.491 0.530 0.542 0.597 0.672 0.686 0.700 0.721 0.727 0.727 0.737 0.742 0.760 0.772 0.773 0.775 0.777 0.784 0.786 0.795 0.806 0.808 0.815 0.815 0.819 0.819 0.844 0.856 0.858 0.874 0.879 0.881 0.919 0.933 0.956 0.962 0.970 0.973 1.024 1.049 1.072 1.090 1.097 1.138 1.173 1.238 1.242

$$$$
