
 OpenBabel03071213D

 28 27  0  0  0  0  0  0  0  0999 V2000
    4.3610   -1.6870    1.0750 C   0  0  0  0  0
   -0.1370   -1.8030    9.5340 O   0  0  0  0  0
    2.9440   -3.0230    5.9590 O   0  0  0  0  0
    4.4080   -1.7870   -2.9500 C   0  0  0  0  0
    2.9650    2.1600    3.4840 O   0  0  0  0  0
    3.1840   -0.5720    5.9250 O   0  0  0  0  0
    3.8130   -0.3310    0.8280 C   0  0  0  0  0
   -0.5610   -2.5640    8.3880 C   0  0  0  0  0
    4.1740    2.9540   -1.4250 C   0  0  0  0  0
    4.2520    3.0990   -2.9280 C   0  0  0  0  0
    3.0480    3.8060   -0.9290 C   0  0  0  0  0
    3.4180    2.1060   -3.7060 C   0  0  0  0  0
    2.8470    3.7340    0.5840 C   0  0  0  0  0
    2.3250   -0.3620    0.6070 C   0  0  0  0  0
    4.2070    0.8180   -3.8900 C   0  0  0  0  0
    1.4610    4.0750    1.0950 C   0  0  0  0  0
    0.5510   -2.7750    7.3210 C   0  0  0  0  0
    3.6860   -0.2420   -4.8670 C   0  0  0  0  0
    1.5250   -0.8750    1.8020 C   0  0  0  0  0
    1.2160    3.7060    2.6410 C   0  0  0  0  0
    0.6710   -0.6500    4.1890 C   0  0  0  0  0
    0.8610    1.2850    2.7160 N   0  0  0  0  0
    1.2610   -1.6860    7.0420 O   0  0  0  0  0
    1.3870   -1.7050    4.5310 O   0  0  0  0  0
    3.4000   -1.4290   -4.0540 C   0  0  0  0  0
    1.3750   -0.0310    3.0440 C   0  0  0  0  0
    1.7460    2.3400    2.9850 C   0  0  0  0  0
    2.3020   -1.7440    5.8610 P   0  0  0  0  0
  1  7  1  0  0  0
  2  8  1  0  0  0
  3 28  1  0  0  0
  4 25  2  0  0  0
  5 27  2  0  0  0
  6 28  2  0  0  0
  7 14  1  0  0  0
  8 17  1  0  0  0
  9 10  1  0  0  0
  9 11  1  0  0  0
 10 12  1  0  0  0
 11 13  1  0  0  0
 12 15  1  0  0  0
 13 16  1  0  0  0
 14 19  1  0  0  0
 15 18  1  0  0  0
 16 20  1  0  0  0
 17 23  1  0  0  0
 18 25  1  0  0  0
 19 26  1  0  0  0
 20 27  1  0  0  0
 21 24  1  0  0  0
 21 26  1  0  0  0
 22 26  1  0  0  0
 22 27  1  0  0  0
 23 28  1  0  0  0
 24 28  1  0  0  0
M  END
>  <MOLID> (5p2pB1)
5p2pB1

>  <SMILES_CANONICAL> (5p2pB1)
CCCC[C@@H](NC(=O)CCCCCCCCCC=C)COP(=O)(OCCO)O	

>  <FINGERPRINT> (5p2pB1)
0000000000000001000000000000000000000001000000000101000000000000000000000001000000000001000000000000000000000000000001100000000000000000000010000000000010000100000000000000100000000000000000000000000000000000010000000100000000100000000000000000010000000000000000000000000000000000000000000000000000010000000000001000000000000000001000000000000000000000110000000000000100010000000000000000010000000000100000000000101000000000100000100000000000100000000000000000101000000100000000000000000000001000000011100000100000010000000011100000000010100000000000001000000000000000000000000010000001000000001000000000000000000000000000000111001000000011000000000000000000000000000000000001010000000100000011100001000000100111000000000000000000000000000000000001000000000000000110000000000000000000000000000000000000000000000000000000000000000000000000100000000000000000000000001001000000000001000000000000000000000000000000000000000000000000000000000000010000000000000001010011010001000010000000000000000000000000000000011010001000000000

>  <MACCS166> (5p2pB1)
000000000000000000000000000010000100000000000001000000000000000000000001000000000100000001110010001001010101111101111100000101011111000101111100011110101111111110010000

>  <OB_MW> (5p2pB1)
421.259

>  <OB_logP> (5p2pB1)
4.8751

>  <OB_PSA> (5p2pB1)
114.9

>  <OB_MR> (5p2pB1)
113.939

>  <OB_ATOMIC_CHARGES> (5p2pB1)
7.286e-07 -0.2175971336 -0.4372936101 -0.0049089806 -0.2733428365 -0.5171890869 5.79523e-05 0.2144523141 2.74e-07 1.06785e-05 1.26844e-05 0.0003445733 0.0005033364 0.0018470437 0.0046667314 0.0096151323 0.1845624027 0.0260339261 0.0242617497 0.0868235505 0.1706104631 -0.2045946133 -0.3112491768 -0.3122296331 -0.0261470617 0.1252401523 0.2413884019 0.2141200374

>  <MCT_HBD> (5p2pB1)
3

>  <MCT_HBA> (5p2pB1)
7

>  <ENSEMBLE_TOTAL> (5p2pB1)
50

>  <ENSEMBLE_COORDS> (5p2pB1)
-0.4739 -2.8310 -2.0874 -1.8881 -5.2022 6.5415 0.6920 -2.4362 3.0730 3.8071 -2.8846 -6.5041 -1.2158 3.5316 2.3776 0.6636 -0.7088 4.8736 -1.4012 -1.7337 -1.6288 -2.0129 -4.3284 5.4324 1.0321 2.8188 -3.5247 1.1703 1.3178 -3.5199 0.0349 3.2163 -2.4657 1.4896 0.8048 -4.9014 0.4392 4.5152 -1.8124 -0.6657 -0.7809 -0.7186 1.6284 -0.6952 -4.8265 -0.5418 4.8525 -0.7125 -0.9675 -3.2508 5.5677 1.9788 -1.2604 -6.1791 -1.6570 0.1700 -0.0880 0.0745 4.5356 0.6313 -0.1235 0.2423 1.9268 -0.5191 2.2259 0.5844 -1.3408 -2.1817 4.7181 -0.8862 -0.3362 2.9693 2.6086 -2.5909 -5.9996 -1.0905 0.9927 1.0465 -0.6506 3.4006 1.2958 -0.1845 -1.4033 3.9306
3.0990 -4.3719 -0.6969 -2.6284 -0.8241 9.2120 -2.2843 -3.4083 4.6117 3.3754 0.4956 -9.5774 1.0051 1.6437 1.3412 -3.0090 -1.1431 3.8636 2.4293 -3.0393 -0.9199 -1.7094 -0.7842 8.1341 0.1220 3.2443 -3.8622 1.0114 2.2919 -4.6180 0.2963 2.9675 -2.3909 0.6545 2.2579 -6.0815 -0.5899 3.8679 -1.5689 1.7733 -2.5793 0.3574 1.5296 1.2241 -6.7446 -0.3249 3.6292 -0.1020 -2.3792 -1.3681 6.9150 1.4895 1.3705 -8.2439 0.5510 -1.7562 0.0297 -1.0726 2.4068 0.3819 -0.8516 -1.9918 2.0504 -0.6952 0.1270 0.8950 -1.4804 -1.2251 5.8277 -0.6282 -1.7620 3.4318 2.2787 0.2720 -8.8530 0.0410 -1.0573 1.2678 -0.1165 1.3794 0.9216 -1.8865 -1.8672 4.4183
0.0636 -3.5422 -2.2151 -1.2855 -4.7232 7.3212 -3.3524 -0.4008 5.7194 2.3065 -1.1509 -9.7082 -2.0289 1.7876 1.7542 -1.3508 1.0612 5.6039 0.6406 -3.1955 -0.8650 -1.1178 -3.3221 7.4626 1.7194 2.6204 -3.8135 1.3473 2.4633 -5.2644 0.4711 2.9549 -3.0365 2.4555 1.7904 -6.0322 0.7612 2.9297 -1.5591 -0.1274 -2.0401 -0.2748 1.9219 1.4269 -7.3945 -0.5385 2.9971 -0.7970 -1.2864 -2.6901 6.1043 2.9605 0.6776 -8.1878 0.4196 -1.6909 1.0891 -0.2505 2.9736 0.6840 -0.3192 -0.7034 3.2366 -0.0322 0.6886 1.2761 -0.9465 -1.3172 6.2073 -1.6318 -0.6037 3.7683 2.3311 0.1511 -9.4229 -0.4332 -0.6206 1.7312 -0.8963 1.7637 1.2843 -1.8009 -0.2853 5.3283
1.5548 -3.6706 -2.0155 -3.0714 -1.0410 9.5985 -1.9995 -3.5603 5.0728 3.7736 0.3378 -9.9254 1.1718 1.8314 1.9284 -3.0944 -1.4777 4.2425 1.9095 -2.5428 -1.0801 -2.1133 -0.8491 8.5722 0.6557 2.9331 -4.1583 0.3620 2.3012 -5.4962 -0.3802 2.4582 -3.1728 1.4098 2.6966 -6.5042 0.0090 2.8188 -1.7614 0.7861 -2.3037 -0.0996 1.6236 1.5529 -7.4637 -0.9033 2.0668 -0.8254 -2.5979 -1.5594 7.3328 2.5179 1.9930 -8.5955 1.3306 -1.5270 1.0753 -0.7031 2.4968 0.6074 -0.6940 -1.8421 2.5625 -0.3867 0.2267 1.3015 -1.6909 -1.2542 6.2878 -0.6139 -1.6420 3.9648 2.6126 0.9068 -9.6001 0.2770 -0.8758 1.9369 0.1446 1.4995 1.3436 -1.8902 -1.9739 4.8711
-2.7295 -3.6504 -0.7957 1.7083 -4.5888 4.7212 -2.8395 -1.7074 5.0836 4.3118 -2.1499 -7.6177 1.0346 1.7973 1.0005 -0.8568 -0.4919 5.9643 -2.0325 -2.3422 -1.0748 1.3741 -3.2510 4.3910 0.8533 2.8804 -3.6589 1.1649 1.4525 -4.0278 -0.2081 2.9094 -2.5898 2.2006 1.4382 -5.1231 -0.0282 4.1426 -1.7394 -1.5653 -1.7236 0.2194 2.2723 0.0629 -5.7360 -0.9540 4.0708 -0.5515 -0.1205 -3.0974 4.5173 3.6189 -0.1277 -6.3886 -1.9265 -0.2576 0.2354 -0.1694 3.8460 0.7214 -2.4625 0.1775 2.6055 -1.2714 1.8140 1.2927 -0.4886 -1.8659 3.9187 -1.8342 0.3801 3.8612 3.9279 -1.5746 -6.4779 -1.4438 0.3976 1.5093 -0.0473 2.3760 1.0048 -1.4889 -0.9169 4.7350
1.4785 -3.0834 -1.2989 -2.4737 -2.5363 1.3044 -0.9921 -2.2132 6.6412 1.4859 -1.7559 -9.1998 -1.6123 1.6539 2.7346 -0.9084 0.2486 6.3545 1.7509 -2.9279 0.1768 -2.5481 -1.5202 2.2898 0.7947 2.4570 -3.5678 0.2376 2.0136 -4.8958 -0.3479 2.6127 -2.5950 1.3379 1.5215 -5.8012 0.1788 2.8807 -1.2085 0.8500 -1.8627 0.7500 0.7024 0.7715 -6.9446 -0.9496 2.7527 -0.2140 -2.0221 -2.0799 3.5880 1.7430 0.3576 -7.9531 1.5140 -1.2050 1.9367 -0.4374 3.0391 1.1771 1.0085 -0.0293 4.0608 0.4730 0.9891 1.9376 -2.0349 -1.0371 4.5500 0.5796 -1.1072 4.8759 1.0997 -0.4990 -8.9790 0.5537 -0.2694 2.6381 -0.6236 1.8205 2.0288 -0.8382 -0.9919 5.6134
2.0118 -3.9463 -1.0125 -2.7681 -1.1441 9.8723 0.0609 -1.9256 5.3849 2.4541 1.5672 -11.2985 0.3998 1.9716 1.8853 -1.9353 -3.4036 5.1690 2.0840 -2.6360 -0.2705 -2.8471 -0.6721 8.5381 1.2461 2.4013 -4.2530 1.2818 1.6007 -5.5317 -0.0187 2.0668 -3.5035 2.2009 2.2570 -6.5313 0.1082 2.4343 -2.0458 0.7653 -2.3590 0.4086 1.6696 2.0322 -7.9259 -0.8899 1.6171 -1.2642 -2.0755 -1.6179 7.6523 2.7772 2.2094 -8.9357 0.9976 -1.4182 1.5677 -1.1586 2.2265 0.0912 -1.2616 -1.8493 2.5771 -0.8707 0.1412 1.2257 -2.2870 -1.2151 6.3091 -1.9084 -1.3624 3.7420 2.1976 2.3983 -10.2880 -0.2682 -0.8079 2.1249 -0.4430 1.4511 1.1601 -1.5229 -2.0174 5.1523
5.6126 1.0691 0.2159 -5.5096 -3.1689 5.1251 -1.1872 -2.4247 1.9760 0.3391 -3.1461 -8.9441 -0.0944 3.1633 3.1203 -0.3815 -3.4390 4.1050 4.8695 1.4086 1.4828 -4.4873 -2.1903 5.0434 -0.7765 1.4396 -3.7446 0.1646 1.2662 -4.9088 -0.1163 2.3298 -2.7216 -0.5098 0.5091 -6.0237 -0.8949 2.2965 -1.4336 3.5461 0.6822 1.5221 0.5437 -0.2216 -6.8178 -0.1793 3.1114 -0.3838 -3.3423 -2.7670 4.2487 -0.0862 -0.9072 -8.0030 2.7966 1.1103 2.7619 -0.9656 3.0275 0.9028 1.0993 -0.7617 2.7615 0.5663 1.3988 1.7646 -2.2768 -1.8319 4.2858 0.1465 -1.0375 3.7769 0.8093 -1.9911 -8.4730 1.3372 0.7257 2.7715 -0.1119 2.5656 2.0479 -0.9109 -2.2166 3.5416
5.6442 -0.1733 1.1473 -4.6556 0.1007 6.0293 -0.8688 -4.2836 3.8527 1.4719 0.5957 -10.8685 -0.3559 2.5226 3.0431 -1.9229 -2.6352 2.3184 4.6443 0.5382 2.0232 -4.0580 -1.1853 6.0102 -0.4943 0.9885 -3.9332 0.4402 1.0578 -5.1125 0.2091 1.5680 -2.7308 -0.2768 0.6911 -6.3864 -0.7377 1.6122 -1.5614 3.3040 -0.1509 1.9420 0.7514 0.5615 -7.4818 -0.1246 2.3989 -0.4287 -3.0058 -1.1946 4.9308 0.0831 0.4680 -8.8296 2.4494 0.3042 3.1017 -1.0406 2.2960 0.7680 0.6847 -1.4770 2.8953 0.3850 0.6904 1.8252 -2.6097 -2.5383 4.7079 -0.2306 -1.7517 3.9442 1.0468 -0.0920 -9.8083 0.9795 -0.0000 2.9361 -0.2942 1.8772 2.0006 -1.4182 -2.7893 3.6651
4.3678 1.8792 5.0115 -1.3396 -1.3011 6.4302 -3.8066 -2.0514 1.5924 1.4059 -2.4081 -9.5785 -1.2229 2.2541 2.6711 -1.8082 -3.3741 0.9563 3.9109 0.6272 4.3050 -1.1609 -2.2094 5.3570 0.5451 1.8409 -3.8869 -0.0812 1.0473 -5.0057 -0.5008 2.1685 -2.8498 0.9410 0.7979 -6.0859 0.1765 2.6683 -1.5992 2.4060 0.6223 4.1984 0.3637 -0.1341 -7.1220 -0.8305 2.8041 -0.4844 -2.3988 -2.1756 4.4951 1.3652 -0.3378 -8.2321 1.9898 -0.2827 3.0639 -0.1155 3.2145 0.7813 0.0146 -1.2032 1.9329 0.5820 1.1452 1.7127 -2.1813 -3.0389 3.3907 -1.3941 -1.0720 1.8254 0.8079 -1.2632 -9.2477 0.5790 0.0209 2.6184 -0.3371 2.1659 1.8276 -2.2780 -2.4049 1.9222
5.2460 -1.8923 1.0125 -3.8500 1.2069 6.8455 -1.4104 -4.2147 5.1841 1.3390 1.5118 -11.5363 0.0648 1.9920 2.2598 -2.5059 -2.8060 3.4525 4.3873 -0.8722 1.7160 -3.8094 -0.2112 6.8718 0.0457 2.0289 -4.4887 0.5244 1.2949 -5.7184 -0.0587 1.0413 -3.3516 0.9553 2.2588 -6.7970 -0.6055 1.6936 -2.1047 2.9959 -1.4174 1.9379 0.7834 1.5905 -8.1400 -0.3400 0.7825 -0.9307 -2.9930 -0.6702 5.6909 1.3718 2.4375 -9.2418 2.2715 -0.5028 2.8974 -1.0847 1.2419 0.3008 0.3314 -2.0484 3.3925 0.1108 -0.2679 1.7300 -2.7505 -2.0624 5.8153 -0.4635 -1.8616 4.5544 0.7050 2.1093 -10.5266 0.7730 -0.6832 2.9351 -0.2356 1.0532 1.5275 -1.7982 -2.7328 4.7119
-0.5699 -5.7279 -0.6365 1.6359 -1.2333 8.1926 -3.4319 0.1620 4.9055 5.0695 2.2392 -10.0789 0.6204 -0.0258 0.8038 -3.0920 -1.9669 6.1422 -1.1970 -4.3606 -0.7475 0.6211 -0.3795 7.6919 0.7936 2.8401 -4.3040 2.0778 2.9768 -5.0844 1.1376 2.5385 -2.8657 1.8412 2.7853 -6.5620 -0.0855 2.6367 -1.9885 -1.2421 -3.7213 0.6162 3.1765 2.5762 -7.2335 0.3149 2.3780 -0.5558 -0.2014 -1.1614 6.6992 3.0090 2.4015 -8.7223 -2.0651 -2.4577 0.5672 -0.8466 1.8010 0.2180 -2.5527 -1.7257 2.8748 -1.6542 -0.1699 1.2484 -1.2307 -0.3122 6.2195 -1.7644 -1.6858 4.0533 4.1815 1.6701 -9.2633 -1.6380 -1.5420 1.6887 -0.5115 0.4449 0.7751 -2.3960 -0.9804 5.3458
4.4988 -0.2026 -2.6511 -3.6312 -5.3226 2.2749 -2.3017 -0.1747 1.7017 -0.2356 -3.8707 -1.1673 1.9558 3.4176 2.2642 -1.9202 -0.6596 4.1119 4.3966 0.3808 -1.2649 -2.3991 -4.6261 2.2037 -0.5967 1.9376 -2.6969 -1.0273 1.2664 -3.9772 -1.0205 3.3834 -2.6910 -0.3654 -0.0868 -4.0870 -1.0742 3.8919 -1.2722 2.9845 0.2525 -0.7445 -0.9378 -1.0200 -3.0480 0.3157 4.1765 -0.7504 -2.6549 -3.1802 2.5458 -0.2642 -2.3654 -3.1230 3.0100 0.4464 0.7532 0.2632 4.1664 0.7590 0.7636 -0.4581 1.4542 1.0029 1.8836 0.8100 -1.4076 -2.5081 2.5199 0.1081 -0.3974 2.7132 -0.9122 -3.2805 -2.1527 1.6667 0.7420 1.3723 1.1819 3.1382 1.3524 -1.3993 -0.9305 2.7901
4.9662 -1.4072 4.1484 -4.2477 0.4683 7.5007 -1.2191 -4.2334 4.8773 0.5534 2.5684 -12.1040 0.2306 1.8693 1.9115 -0.0985 -2.1933 5.7491 4.1273 -1.2884 2.9006 -4.1920 -0.7397 6.7598 0.5451 2.2189 -4.8545 0.6846 1.4353 -6.1362 0.2356 1.2511 -3.7407 1.1094 2.3381 -7.2664 -0.1479 1.9819 -2.4790 2.6655 -1.2890 3.2700 0.5247 1.8171 -8.5564 -0.0935 1.0017 -1.3358 -2.7888 -0.8992 6.2327 1.2411 2.4243 -9.7369 1.8197 -1.3363 2.0202 -0.9057 1.4913 -0.1608 -0.3761 -2.2490 2.6719 -0.2373 -0.3093 1.2470 -2.5843 -2.2682 5.9228 -1.3808 -1.9366 3.6229 0.6995 1.8480 -10.9915 0.3887 -0.9847 2.3573 -0.2327 1.0625 1.1115 -1.2872 -2.6418 5.0584
4.9979 2.3692 1.9912 -5.5674 -1.6611 7.4259 -2.0333 -2.8833 3.5767 0.3813 0.6949 -11.8203 -0.0405 2.0460 1.9618 -0.9391 -3.4999 5.7288 4.5442 0.9342 2.0921 -4.3658 -1.0566 6.9773 0.5486 1.5333 -4.7145 0.6515 0.6898 -5.9596 0.3488 0.6227 -3.5312 1.0195 1.5547 -7.1374 -0.2528 1.3850 -2.3786 3.1325 0.8913 2.6181 0.3542 1.0104 -8.3761 0.0431 0.6290 -1.1106 -3.5851 -2.0812 6.1933 0.9929 1.6045 -9.6066 2.5424 -0.4825 2.4061 -0.9170 1.0219 -0.0140 0.6999 -1.7783 3.4357 0.2512 -0.2374 1.6361 -2.3825 -1.4695 5.7560 -0.0539 -1.4749 4.5980 0.0770 1.4471 -10.7622 1.0815 -0.4695 2.7898 -0.1856 1.0257 1.2960 -1.3433 -2.3655 4.9283
1.3700 2.7741 6.5252 -3.0864 -0.2113 5.9044 -2.2641 -4.0186 2.3584 0.9052 0.5718 -11.1755 -1.5749 2.0006 2.2472 0.1405 -4.3330 2.8732 1.9967 1.8942 5.4731 -1.8954 -0.8464 5.4685 1.0256 0.9191 -4.1465 0.4746 0.6157 -5.5148 -0.1107 0.9046 -3.1554 1.5882 0.5626 -6.5287 0.2169 1.8048 -1.9937 0.9388 1.4637 4.4921 1.0208 0.0567 -7.8303 -0.9477 1.8360 -1.0357 -2.2855 -2.0511 4.6507 1.9790 0.3270 -8.9623 1.5044 0.4487 3.5291 -0.5568 2.6376 0.1825 0.7105 -1.4525 2.1677 0.2825 0.8287 1.4768 -1.1159 -2.8072 4.3831 -0.5157 -2.1234 1.9180 1.4066 -0.2118 -10.2201 0.4056 -0.0439 2.6176 -0.7027 1.7921 1.4103 -0.9101 -3.3389 2.8853
6.1321 2.2980 1.4572 -4.7954 -4.3620 2.2216 0.3271 -3.2572 1.3568 -1.0239 -5.0803 -5.3427 -0.3942 3.4398 3.0430 -0.8307 -1.3319 0.2731 4.9419 2.4902 2.3622 -3.8742 -3.4418 2.7812 -0.2692 1.7641 -3.1177 -0.6285 0.3033 -3.0338 -0.2989 2.3032 -1.7118 -0.2521 -0.4411 -4.2877 -0.2994 3.8109 -1.6824 3.7104 1.8561 1.7591 -0.8215 -1.8330 -4.1691 0.1173 4.3018 -0.3122 -2.7355 -3.2556 1.8090 -0.4303 -2.6811 -5.3508 2.6421 1.7867 2.8255 -0.8732 3.8454 0.7385 1.3784 -0.1672 1.8388 0.6386 2.1197 1.4374 -1.8885 -2.2473 2.3350 0.3167 -0.8840 2.4503 -1.3914 -3.8050 -5.4698 1.3126 1.2465 2.3570 -0.1842 3.1373 1.8716 -0.5260 -1.9154 1.5609
5.1425 2.6404 4.7862 -5.4637 -3.3069 5.7492 -0.4236 -3.6734 4.1403 -0.5524 1.7572 -10.4586 0.0990 3.0083 2.2470 -1.4679 -2.4961 2.2031 4.6739 1.9237 3.5447 -4.4466 -2.3446 5.5343 -0.2939 0.1553 -4.3053 0.6512 -0.5979 -5.2097 0.4915 0.9352 -3.2793 -0.0257 -0.9025 -6.5248 -0.3828 1.1952 -2.0793 3.2545 1.4556 3.7376 0.2647 0.2059 -7.5063 0.3017 2.1370 -1.1184 -3.4204 -2.9265 4.5924 -0.3248 -0.1123 -8.8576 2.7970 0.6912 2.5190 -0.6188 2.3774 0.0567 1.0470 -1.0358 2.8533 0.6254 0.8896 1.4512 -2.3900 -1.9628 4.4581 -0.0554 -1.1179 3.7417 0.2107 0.8422 -9.8592 1.3146 0.4330 2.6298 0.0861 2.1555 1.3642 -1.0940 -2.3259 3.5899
2.6326 2.9492 6.7668 -3.2657 -5.1256 6.0776 0.1760 -3.3786 2.3924 1.8651 -2.3959 -10.3548 -1.1782 3.1702 1.1683 -2.0691 -2.8945 1.4576 1.2679 2.5784 6.2463 -2.7715 -3.8467 5.7172 0.0633 1.8594 -4.8307 0.9487 1.4051 -5.9654 0.7988 1.6197 -3.5374 0.2078 0.4452 -6.8612 0.4114 2.6286 -2.4857 1.3689 1.9334 4.8839 1.2078 -0.2824 -7.7236 0.8952 2.1147 -1.1516 -2.2244 -3.9294 4.3136 0.4971 -1.2254 -8.6618 -0.0051 1.9561 4.2542 0.8491 3.1905 -0.0945 0.1617 -0.2699 3.0474 0.6045 1.8503 1.8713 -1.8284 -2.6230 3.9176 -0.7641 -0.9327 2.1960 1.4366 -2.2873 -9.0975 -0.1117 1.2129 2.9446 -0.0361 2.7416 1.0310 -1.1384 -2.4640 2.4784
-4.7856 2.1609 5.6447 -2.3808 -5.5166 3.1411 1.2819 -2.0082 5.4004 2.9771 -2.7017 -9.8478 0.9927 3.2062 1.7369 1.7060 -2.5539 3.0120 -4.0720 1.1280 4.8108 -2.3002 -4.1918 3.6421 1.6711 1.4855 -4.1904 1.2567 0.8450 -5.4889 0.4927 1.4711 -3.2506 2.4674 0.3985 -6.2678 0.6703 2.5157 -2.1787 -2.7718 1.6980 4.3021 1.9874 -0.3021 -7.5133 -0.4401 2.3579 -1.1733 -0.8460 -3.8632 3.8661 3.1540 -0.7325 -8.3646 -2.1745 0.7343 3.3078 -0.4185 3.4878 -0.1718 0.0104 0.0914 2.3734 -1.0763 2.1510 1.6862 -0.6892 -2.4604 3.7312 0.7840 -0.3012 3.4959 2.6401 -1.4441 -9.5603 -0.8558 1.2571 2.7937 -0.0679 2.9426 1.1801 0.7870 -1.8551 3.8830
2.0674 -6.0858 0.1236 -3.5186 1.2135 8.9742 -1.1267 -2.8800 6.5240 2.2650 5.6001 -10.6773 0.7533 0.6611 0.9723 -2.8915 -2.1894 4.9010 2.3752 -4.6847 0.5851 -2.5874 1.0918 7.9131 0.7449 1.6253 -4.8572 1.3320 2.7889 -5.6140 0.4747 2.0575 -3.4382 1.0572 2.6510 -7.0899 -0.1057 0.9122 -2.6488 1.1080 -3.9765 1.0022 1.7832 3.7553 -7.8164 -0.5957 1.4295 -1.3194 -2.6704 -0.3105 7.3616 1.4416 3.7331 -9.2848 1.4950 -2.6711 1.6537 -1.1332 0.2921 -0.4844 -0.4565 -2.5223 3.2755 -0.4840 -1.2959 1.1489 -1.8237 -0.3684 6.2259 -0.5315 -1.5812 4.3364 2.4962 4.4514 -10.0412 0.3373 -1.8632 2.1787 -0.1724 -0.0602 0.6148 -1.6335 -1.7736 5.4808
4.5598 0.7659 6.6460 -3.5635 -5.6783 4.0153 -2.0104 -1.2667 1.4040 0.2285 -3.0983 -9.4409 0.4262 3.5376 2.3529 -3.3523 -0.4721 3.3407 4.3448 0.7499 5.1539 -2.5294 -4.7265 4.2025 0.0604 2.0337 -4.5972 -0.5934 1.0405 -5.5248 -0.4671 1.8601 -3.1929 0.3199 0.7476 -6.6910 0.2844 2.7839 -2.2669 2.8676 0.7651 4.8540 -0.4134 -0.1075 -7.6951 -0.0250 2.4617 -0.8257 -2.8994 -3.4813 3.4378 0.5658 -0.7964 -8.6136 2.6561 0.5508 3.3760 0.9840 3.1598 0.0576 0.4102 -0.4121 3.0368 1.1823 1.4420 1.6910 -1.9343 -2.4849 3.7308 -0.9024 -0.0965 3.4734 -0.1481 -1.8194 -9.4166 1.2252 0.8589 3.0082 0.8054 2.7523 1.4899 -2.0819 -1.0700 2.9940
5.7526 2.3068 4.5272 -5.0848 -4.4802 2.5489 -0.2194 -3.1876 4.3388 -0.7161 -3.1084 -9.6863 -0.6628 3.3953 2.5113 -0.1345 -2.5215 1.9357 4.2998 2.6909 4.6490 -4.4350 -3.2711 2.9000 0.1996 1.5511 -4.2637 -0.5848 0.7227 -5.2468 -0.6267 1.7569 -3.0172 0.3463 0.0003 -6.1878 0.2726 2.2390 -1.9098 3.4315 1.6760 3.9447 -0.4851 -0.7355 -7.2083 -0.4581 2.2621 -0.5899 -2.9429 -3.4959 2.8590 0.3949 -1.5723 -8.1021 1.9960 1.8946 4.3608 0.2799 3.2101 0.3254 1.0115 -0.2465 3.4429 0.9894 1.8083 2.1139 -2.3252 -2.2411 3.0906 -0.3296 -0.6786 3.6153 -0.3325 -1.8740 -9.3592 0.9812 1.2605 3.4419 0.1115 2.8119 1.7588 -0.7294 -2.1737 3.2070
5.5373 2.0446 5.2824 -5.0193 0.0316 3.9498 -1.0776 -1.9504 1.0846 0.2879 -0.9557 -10.6574 -0.8404 1.5607 3.2148 -0.5415 -3.8369 2.6111 4.7482 1.8607 4.0106 -4.3152 -1.1926 4.0762 0.1713 0.8690 -3.6612 -0.4392 0.1542 -4.8397 -0.6764 0.6285 -2.4363 0.2209 0.6054 -6.1186 -0.2006 1.5152 -1.3145 3.7373 0.7578 4.1998 -0.3611 -0.1712 -7.2733 -1.0954 1.3549 -0.1095 -3.0286 -1.0761 3.2984 0.1632 0.3708 -8.5797 3.1772 0.3501 2.8602 -0.6585 2.3306 0.9586 1.3395 -1.2784 2.7267 1.0416 1.0070 1.9651 -2.3815 -2.3374 3.3256 0.1240 -1.5728 3.3972 -0.4456 -0.3803 -9.7039 1.6807 0.1760 2.9564 -0.1920 1.5861 2.1737 -0.9562 -2.4512 2.6032
-3.5211 2.2633 6.4487 -3.4016 -3.9267 6.9907 1.4028 -2.0891 5.5380 2.8267 -0.7740 -11.4835 -1.8247 -0.1627 0.1060 0.6843 -3.6204 3.7173 -2.9312 2.6200 5.1074 -2.9328 -2.8722 6.1662 1.9559 1.8613 -4.9191 1.4035 1.4515 -6.2615 1.1120 1.2200 -3.8460 2.4571 1.5604 -7.3347 1.5711 1.6395 -2.4723 -2.2683 1.4069 4.5037 2.0505 0.6844 -8.4936 0.9013 0.7658 -1.4378 -1.5108 -3.1844 5.7758 2.9752 0.8934 -9.6663 -1.3844 1.8359 3.3580 -0.3755 1.4186 -0.9579 0.4131 0.1479 3.5177 -0.2803 1.0278 1.3767 -1.1077 -2.2564 4.7821 0.6808 -1.2030 3.1784 2.3547 0.3208 -10.8862 -0.7521 0.6390 2.6849 -0.9158 0.6535 0.2129 0.4176 -2.3211 4.2945
4.0108 1.1852 7.2385 -4.5773 -1.5570 0.6782 0.3399 -3.5324 2.0976 -0.2912 -3.0124 -9.4053 -0.3549 3.0325 2.7051 -0.1706 -3.1240 4.4999 3.9843 1.4551 5.7552 -4.0767 -2.3262 1.7602 -0.3207 2.0049 -4.2407 -0.9390 0.9808 -5.1569 -1.0285 1.9852 -2.9081 0.1004 0.4503 -6.1128 -0.2563 2.8284 -1.9263 2.6532 1.0307 5.1897 -0.5805 -0.4176 -7.1407 -0.5732 2.4127 -0.5111 -2.5777 -2.1836 1.7626 0.4447 -1.1299 -7.9869 2.6976 1.0984 3.6830 0.3525 3.1541 0.4244 1.2517 -0.7474 2.8941 1.1305 1.4452 1.8748 -2.0532 -2.8465 2.9013 -0.1104 -1.1120 3.0355 -0.2202 -1.6995 -9.1842 1.3447 0.7443 3.1162 0.3021 2.5440 1.7915 -0.4819 -2.6632 3.1652
5.7543 -3.4325 4.3936 -5.6350 -0.0010 6.0148 -2.4894 -2.5827 4.5804 1.1844 3.9871 -10.5388 2.0928 0.9939 1.3780 -2.1540 -1.1122 2.5967 5.0317 -3.0039 3.1415 -4.2237 -0.0754 6.1265 -1.1152 1.3190 -4.3647 -0.7464 2.4695 -5.2677 -0.4737 1.5444 -3.0199 -0.9397 2.0851 -6.7123 -1.0293 0.5861 -1.9957 3.7018 -2.3978 3.5101 0.1201 2.7590 -7.5471 -0.3852 0.8504 -0.6550 -3.6271 0.3415 4.8053 -0.2323 2.6605 -9.0108 2.7422 -2.5462 2.3558 1.0205 0.2938 -0.6425 0.4460 -2.3298 3.2196 1.1395 -1.1256 1.2449 -2.2465 0.0159 4.8178 -0.1911 -1.4252 4.1073 0.9858 2.8758 -9.8292 1.5775 -1.6025 2.5325 1.4738 0.1251 0.7735 -1.7817 -1.2725 3.9854
5.1139 2.6546 4.9773 -1.4324 -1.9754 -0.5915 -3.4945 -1.3047 4.3384 0.3082 -2.1878 -10.1527 -0.7064 2.7824 2.9717 -1.5229 -2.4957 5.2559 4.4615 1.3198 4.7182 -1.3025 -2.7708 0.5747 0.3876 0.8449 -3.7319 -0.2678 -0.0665 -4.7370 -0.4420 0.8828 -2.4732 0.2611 0.2319 -6.1171 0.1700 1.8626 -1.5067 3.0093 1.5318 4.3777 -0.4996 -0.5888 -7.1275 -0.7208 2.0294 -0.3013 -2.3520 -2.3308 1.5642 0.0740 -0.3664 -8.5046 2.4765 0.3402 3.6188 -0.0235 2.9343 0.6872 0.2832 -0.7969 3.3764 0.7887 1.2178 2.1223 -1.9926 -2.8400 2.8382 -1.0605 -0.5558 3.7675 -0.4747 -1.3810 -9.4362 1.0014 0.5305 3.3698 -0.0447 2.3141 2.0504 -1.9986 -1.8167 4.0710
5.1185 2.6814 5.8616 -4.5348 -4.3100 0.6827 0.2120 -3.2286 2.8696 -0.3409 -3.4431 -9.3300 -0.8510 3.3358 2.5066 0.0323 -1.5475 1.0359 3.6149 2.7836 5.8327 -4.0392 -3.3141 1.5607 -0.7640 1.2850 -3.8470 -0.8454 -0.1117 -4.4130 0.1360 1.2730 -2.6372 -0.7954 -0.0701 -5.9202 -0.2750 2.3363 -1.6479 3.0621 2.0118 4.6583 -0.0576 -1.2849 -6.4264 0.6364 2.2411 -0.4494 -2.5377 -3.2487 1.4188 -0.2402 -1.4208 -7.9175 1.5607 1.9302 4.8012 0.4317 3.4029 0.4919 1.0304 -0.1354 3.4471 1.0897 2.0741 2.3851 -2.0865 -2.1533 2.1996 -0.2678 -0.7078 3.3685 0.2431 -2.7547 -8.3490 0.8509 1.3519 3.6031 0.1264 2.9266 1.8851 -0.5094 -1.9029 2.3290
-3.7055 2.5532 6.7585 1.0419 -6.1591 2.6358 0.6273 -1.3844 0.4555 2.7112 -4.5857 -5.9371 -1.8397 3.6387 0.8002 -1.6491 -2.3039 0.0631 -2.4451 2.8773 5.9966 0.2038 -5.0691 2.9788 1.0610 2.2014 -4.4900 1.8648 1.2329 -5.3210 1.6844 2.3177 -3.1217 1.1146 -0.0694 -5.4523 0.8514 3.2268 -2.2538 -2.3683 2.0102 4.7666 2.1100 -1.1985 -5.5087 1.0631 2.8614 -0.8060 0.0481 -4.1819 1.7686 1.3953 -2.5182 -5.6466 -1.0392 2.2132 4.0805 0.4319 3.8887 0.1039 -0.6964 0.1598 2.7562 -0.2005 2.3338 1.8098 -0.5431 -2.9661 2.2011 -1.4641 -0.5487 1.7966 2.2763 -3.6018 -5.1489 -1.0880 1.6163 2.6934 -0.6733 3.2728 0.9152 -0.7730 -1.8175 1.1058
4.0762 3.8862 6.1235 -3.8123 -5.1826 1.2940 -0.0174 -3.0317 4.3461 0.0541 -3.1211 -10.2392 -1.3706 3.0878 1.9121 0.4284 -2.0280 2.1078 2.5873 3.8188 5.8979 -3.6153 -3.9087 1.8833 0.2332 0.9791 -4.3138 0.4817 -0.3117 -5.0552 0.2924 0.6947 -2.8328 0.6005 -0.0695 -6.5390 0.0074 1.9395 -2.0303 2.2636 2.7794 4.8514 0.1883 -1.3249 -7.2683 0.3027 1.6608 -0.5761 -2.1502 -3.7507 2.2100 0.5181 -1.2154 -8.7363 0.7660 2.5835 4.8154 0.3106 2.9468 0.2155 0.6113 0.2053 3.9888 0.6599 2.0737 2.4082 -1.9608 -2.4290 2.6898 -0.5918 -0.5342 3.8327 -0.3899 -2.0954 -9.5122 0.2840 1.6533 3.7295 -0.2519 2.7029 1.5851 -0.5055 -2.0089 3.2122
5.2909 2.6159 5.1971 -5.0592 -1.3055 1.5498 0.1024 -3.6766 4.0569 0.7415 1.3503 -10.1365 -0.9286 2.5574 2.1002 0.0851 -2.5142 1.8588 3.7930 2.7797 5.2328 -4.3160 -2.2453 2.3085 -0.9284 -0.5678 -3.6781 -0.2870 -1.1456 -4.9143 0.1301 -0.2802 -2.6435 -0.9689 -0.5964 -6.1424 -0.3526 0.8080 -1.7167 3.1353 1.7530 4.3428 0.0589 -0.3572 -7.2192 0.5919 0.9222 -0.5482 -2.8637 -1.8445 2.2540 -0.6184 0.1340 -8.4746 1.6476 1.7736 4.6045 0.4148 2.2515 0.1466 0.9895 -0.5370 3.8500 1.0318 1.3274 2.2674 -2.1121 -2.7890 2.9992 -0.3144 -1.1007 3.8859 0.3708 0.1979 -9.5774 0.8360 0.9469 3.6384 0.0712 2.0541 1.5954 -0.5414 -2.5121 3.1626
0.4236 2.0013 8.0264 -2.4496 -3.7906 -0.9434 0.6066 -3.3422 3.5672 0.8472 -3.2469 -9.2251 -1.0325 3.0895 1.9407 -1.0173 -1.7376 4.5573 1.1737 2.3463 6.7644 -2.7091 -3.6557 0.4449 -0.3866 1.9216 -4.3754 0.3142 1.3950 -5.6042 0.5827 1.9400 -3.2209 -0.4364 0.2087 -6.1568 0.0472 2.7836 -2.0901 0.6373 1.5150 5.6282 0.5449 -0.8216 -6.6583 0.8550 2.4860 -0.8520 -1.4338 -3.2047 1.1078 -0.1849 -1.8789 -7.4498 1.4110 1.8052 4.3667 0.5882 3.5021 0.2325 1.1757 -0.2569 3.0290 0.9839 1.9347 1.9939 -1.7129 -2.8681 2.4570 0.1197 -1.0087 2.4553 0.7829 -2.8884 -7.9425 0.7098 1.1735 3.1882 0.0664 2.8193 1.4653 -0.5068 -2.2215 3.2939
2.2389 3.4320 7.2599 -4.1178 -2.6506 -0.0502 1.5253 -3.2518 2.3835 0.5907 -3.6255 -8.6366 -1.6745 2.5729 2.0011 1.0617 -1.3487 0.8560 0.9456 3.0774 6.5711 -2.9856 -3.3699 0.4116 0.1157 1.8159 -4.0187 0.8089 0.9500 -5.0390 0.8716 1.7419 -2.7168 -0.1850 0.0119 -5.6751 0.1800 2.5773 -1.6698 1.1973 2.0798 5.4658 0.5666 -1.0901 -6.3764 0.7360 2.2214 -0.3146 -1.8662 -2.3813 0.6181 -0.4025 -2.0605 -7.0033 -0.1298 1.5238 5.0033 0.2477 3.1996 0.7261 0.6153 -0.4610 3.6578 0.4046 1.7377 2.6093 -0.7125 -3.0867 1.0455 -0.2205 -1.4031 3.0001 0.3196 -3.3023 -7.3717 -0.0912 0.8695 3.6428 -0.4651 2.4642 1.8225 0.4251 -2.2435 1.7975
2.2117 2.7761 7.6824 -3.0718 -1.4481 -0.8954 0.4393 -3.7440 2.1935 0.9337 -3.1747 -9.0174 -1.3224 1.8264 2.2432 -0.3497 -2.4819 4.1858 2.7565 2.0250 6.4939 -2.8122 -1.3991 0.4974 -0.6971 1.1343 -3.6158 0.0256 0.9022 -4.9187 0.0321 2.1901 -2.8245 -0.6820 -0.1669 -5.7118 -0.5712 2.3061 -1.4475 1.6455 1.7638 5.5088 0.1394 -0.5104 -6.9289 0.5298 2.5393 -0.4441 -2.2328 -2.7289 0.9138 -0.4771 -1.6861 -7.6453 2.1867 0.9841 4.3356 -0.0173 3.2106 0.7939 1.3672 -0.6271 2.6637 0.9986 1.7590 2.3829 -1.9534 -2.6805 2.3036 0.1514 -1.1373 2.1406 0.3182 -2.0030 -8.8558 1.0814 0.6907 3.3501 -0.2096 2.1877 1.8747 -0.4207 -2.5073 2.7414
-5.9535 4.1651 3.7152 3.2437 -4.9181 2.2357 -0.7694 -2.3297 4.6339 3.2312 -3.9703 -7.5183 -2.0182 1.6294 -0.8312 0.6214 -0.4855 3.6912 -5.7487 3.0031 2.7774 2.0724 -4.2564 1.7907 2.5758 1.5746 -2.9380 2.1958 0.3556 -3.7371 1.4484 1.8256 -1.9693 3.3434 -0.1801 -4.5531 1.8118 2.8729 -0.9491 -4.4090 2.3576 3.0395 2.7853 -1.2831 -5.4189 0.9030 2.7332 0.2492 1.6084 -3.3122 2.8734 3.8625 -1.9538 -6.2308 -4.1202 1.3818 1.9247 -0.4732 3.2846 -0.0528 -2.1904 0.1632 3.0348 -1.7834 1.9882 1.4533 0.5056 -2.5864 2.3544 -1.5325 -0.9887 2.5269 3.2296 -2.6437 -7.3828 -2.6815 0.9398 1.8420 -1.4926 2.1985 0.1208 -0.2655 -1.5653 3.3182
-6.0087 3.9715 3.7471 3.7621 -4.0678 1.7366 -0.7830 -2.6446 4.2825 3.3191 -4.3879 -5.5920 -1.9926 1.7011 -0.8553 0.5543 -0.7535 3.3568 -5.6769 3.0269 2.6203 2.5803 -3.4270 1.2864 2.4995 1.9248 -3.0046 2.0023 1.0868 -4.1549 1.5048 1.8431 -1.8770 3.1378 0.2842 -4.7386 1.8675 2.8204 -0.7868 -4.3615 2.3390 2.8961 2.6002 -1.0427 -5.2108 0.9391 2.6296 0.3873 1.5498 -3.4969 2.3864 3.7293 -1.9532 -5.6226 -4.1405 1.2845 1.8390 -0.4157 3.2335 0.0922 -2.2877 -0.1034 2.8634 -1.7678 1.8302 1.4548 0.3947 -2.8024 1.9437 -1.6465 -1.2242 2.2700 3.1621 -3.2036 -6.1840 -2.7188 0.7947 1.7352 -1.4616 2.1610 0.1508 -0.3417 -1.8241 2.9781
5.3101 3.3488 5.1126 -2.9215 -3.8057 -0.3124 -2.9097 -0.9664 4.1125 -1.7177 -1.5810 -9.7762 -0.8168 2.6598 3.0678 -1.2985 -2.8405 3.8541 4.8746 2.1596 4.2931 -1.9294 -3.1797 0.4840 0.3769 0.3727 -3.3897 -0.2897 -0.5421 -4.3850 -0.4824 0.4960 -2.1560 0.3126 -0.3305 -5.7513 0.0349 1.6280 -1.3061 3.3697 2.1345 4.2045 -0.2688 -1.3350 -6.7137 -0.9023 1.8836 -0.1518 -2.5663 -2.0125 1.1974 -0.0058 -0.8968 -8.1332 2.9180 0.8869 3.4840 -0.2905 2.9294 0.7512 0.9121 -0.5539 3.4241 0.9917 1.5110 2.1619 -1.5513 -1.3099 1.8970 -0.3327 -0.5638 4.1059 -0.6197 -1.8646 -9.0743 1.4118 0.8710 3.3836 -0.0953 2.3579 2.1227 -1.5138 -1.4567 3.4931
-2.9637 5.3942 5.1928 -2.5445 -5.4356 1.1010 1.8560 -1.3945 2.0912 2.9914 -4.0701 -7.9648 -1.5942 2.9013 1.1981 0.6665 -2.9828 3.5841 -1.8902 4.3939 5.5407 -1.4905 -4.5890 0.6748 0.7470 1.1659 -4.0102 0.4244 -0.2241 -4.5011 1.0583 1.0988 -2.5365 1.0014 -0.4471 -5.8764 0.7842 2.4211 -1.8644 -1.9131 3.2624 4.5462 0.7777 -1.8858 -6.2737 1.2154 2.3121 -0.4228 -1.4991 -3.3523 1.5380 1.4552 -2.1759 -7.5903 -0.6556 2.4364 4.6783 0.6035 3.4121 0.4099 0.1644 0.2485 3.8565 0.2498 2.2174 2.4424 -0.2878 -2.6518 1.3047 -0.4762 -0.8086 3.1577 1.7684 -3.6225 -7.6791 -0.5075 1.5440 3.4687 -0.3821 2.8135 1.3691 0.4407 -1.9815 2.5651
4.7288 2.1687 6.3051 -3.4626 -1.1225 -1.0218 0.1265 -3.7489 3.0391 0.1762 -2.9445 -9.4371 -1.1723 2.8426 2.8483 0.3668 -2.2164 1.0972 3.2233 2.2050 6.2408 -2.7399 -2.1337 -0.3396 -0.8707 1.3067 -3.6312 -0.8377 -0.0465 -4.2988 0.0353 1.2800 -2.4260 -0.8044 0.1064 -5.7997 -0.4546 2.2281 -1.3584 2.7376 1.5151 4.9883 0.0305 -1.0036 -6.3887 0.4405 2.0814 -0.1525 -2.6597 -1.7538 1.1187 -0.1254 -1.0430 -7.8885 1.2390 1.3515 5.0797 0.1513 3.1416 0.8819 0.8330 -0.6141 3.5446 0.8231 1.6777 2.6697 -1.9562 -2.7762 1.8068 -0.4258 -1.2022 3.2433 0.6243 -2.2068 -8.4211 0.5875 0.8464 3.8169 -0.1643 2.5302 2.2192 -0.4501 -2.4692 2.2639
-2.3250 6.0662 4.3281 -0.3169 -5.0729 1.9943 -1.2240 -1.5452 7.0196 2.1001 -1.1511 -11.5012 -1.6924 0.2234 0.5623 0.7256 -1.2108 5.5149 -2.7705 4.8633 3.5358 -0.6658 -4.8453 3.3505 2.3942 0.3270 -4.4394 2.0532 -0.5041 -5.6552 1.1780 0.4073 -3.5449 2.8665 -0.0942 -6.8613 1.5551 0.6174 -2.0954 -1.9516 3.6498 3.9107 2.1553 -0.5685 -8.1077 0.2912 0.7963 -1.2846 -0.4132 -3.3905 3.6551 2.9814 -0.3090 -9.3446 -2.5408 2.4432 3.2195 0.5850 0.9289 0.1947 -1.2294 0.7116 4.5407 -0.5589 1.3319 2.2538 -0.7605 -3.1433 5.0080 -1.5346 -0.6763 4.5734 2.0887 -0.2379 -10.5292 -1.6456 1.2300 3.1894 -0.6856 0.7798 0.9915 -0.6597 -1.6267 5.5213
-2.0654 3.4367 7.7768 -1.5684 -6.1174 1.3082 0.1139 -2.8238 3.9826 2.6406 -3.6980 -8.9547 -1.5415 3.3098 1.2890 1.0503 -1.6614 1.9852 -1.0898 3.7438 6.6684 -1.7467 -4.8710 1.9585 0.4701 1.1640 -4.3684 1.0749 -0.0269 -5.0789 0.9770 1.1628 -2.9456 0.7330 -0.0238 -6.5486 0.4056 2.2957 -2.1279 -1.3415 2.8254 5.4992 0.7471 -1.4393 -7.0770 0.8747 2.1345 -0.6994 -0.9570 -3.8269 1.2083 1.6494 -1.5360 -8.2844 -0.1132 2.7717 4.6229 0.5487 3.3557 0.1273 0.1479 0.4606 3.7979 0.3225 2.3380 2.2786 -1.2653 -2.5599 1.7671 -0.7596 -0.4749 3.2377 1.5776 -2.8973 -8.8711 -0.3523 1.8439 3.4556 -0.3572 2.9883 1.2694 -0.1754 -1.8744 2.7231
4.8566 2.8605 6.0517 -3.9902 -4.1386 0.0663 -0.1218 -3.0818 3.6823 1.2376 -0.6325 -9.4536 -0.7713 3.2929 1.9647 0.0786 -1.8326 1.5332 3.4569 3.2110 5.6148 -3.6198 -2.9490 0.7426 -0.9465 -0.0935 -3.3824 -0.5145 -1.2143 -4.2951 0.1867 0.2599 -2.4547 -1.3686 -1.2035 -5.5376 -0.1743 1.4686 -1.6274 2.8669 2.0845 4.8004 -0.5669 -1.6895 -6.7190 0.9241 1.7005 -0.6210 -2.6014 -3.3017 1.7982 -0.5993 -0.6445 -7.8077 1.3819 2.3183 4.6597 0.7195 2.9974 0.1230 0.8109 0.0192 3.7492 1.0898 1.9379 2.2472 -2.2219 -2.1032 2.4551 -0.4996 -0.4978 3.5639 0.0882 -1.1508 -9.0194 0.7256 1.5116 3.5684 0.2396 2.7509 1.5252 -0.6666 -1.8800 2.7720
3.2782 3.6605 6.8453 -3.8529 -2.1836 -0.1057 0.2503 -3.5202 4.3607 1.2616 -1.9180 -10.5434 -1.2812 2.6930 1.8936 0.8879 -2.3509 2.2632 1.8466 3.4354 6.4304 -3.2808 -3.0019 0.9022 -0.4651 0.4933 -3.9827 0.1950 -0.4249 -4.9793 0.1693 0.2816 -2.6312 0.0291 0.1131 -6.3781 -0.0940 1.4699 -1.7412 1.7824 2.4979 5.2480 0.2995 -1.0011 -7.3575 0.5917 1.2516 -0.4158 -2.0388 -2.3128 1.4084 0.3582 -0.4612 -8.7644 0.3320 2.1739 4.9752 0.5769 2.5231 0.3982 0.5163 -0.2233 4.2181 0.6486 1.6088 2.5998 -1.4829 -3.0932 2.4545 -0.5583 -1.0842 3.8663 0.2633 -1.5887 -9.7233 0.1082 1.1817 3.8604 -0.1435 2.2799 1.6906 -0.1974 -2.5000 3.2078
-0.0042 5.2268 6.7324 -3.3030 -4.7058 -0.2040 0.3693 -3.3159 3.4013 1.7487 -3.8206 -8.7978 -0.9679 3.0348 1.9740 0.8134 -1.8246 1.4530 0.6423 3.8747 6.5595 -3.1714 -3.6384 0.7192 -0.0744 1.0770 -4.0147 -0.2974 -0.2569 -4.6802 -0.0719 0.8756 -2.5216 0.3016 -0.2561 -6.0634 0.1496 2.1888 -1.8158 0.4186 3.3973 5.1492 -0.0375 -1.5603 -6.7410 0.8775 1.9166 -0.5243 -1.7157 -3.5203 1.0945 0.7533 -1.7035 -8.0170 1.2263 2.1502 4.8776 0.8159 3.1206 0.3844 0.9504 -0.0552 3.7687 1.0503 1.9854 2.4644 -1.5723 -2.3737 1.9151 -0.2356 -0.7735 3.4669 0.6655 -3.1036 -8.4986 0.6138 1.4134 3.7117 0.1792 2.7130 1.6788 -0.1243 -2.0660 2.5277
4.3326 2.5592 6.9032 -4.4760 -4.1955 1.8933 -2.4131 -1.4006 5.3232 1.1884 0.1457 -10.6869 1.8039 2.4405 1.3831 -3.1858 -0.0390 3.3936 4.3082 1.6468 5.7020 -3.5826 -3.1022 1.7606 -0.7817 1.0047 -4.2511 -1.2197 0.1210 -5.3939 -0.3028 0.1550 -3.0974 -1.1481 0.8837 -6.6945 0.2640 1.0387 -2.0114 2.8761 1.3658 5.3257 -0.8105 -0.0651 -7.8184 0.6655 0.2111 -0.8134 -2.6054 -3.1541 2.9088 -0.6203 0.7045 -9.1028 2.8157 0.3429 4.2182 1.9817 0.7014 -0.2523 0.4909 -0.4678 4.0488 1.7069 0.2213 2.0679 -1.7708 -2.0089 2.8426 -0.7858 0.1467 3.9823 0.0248 -0.1661 -10.1153 1.5093 0.4875 3.4726 1.7973 1.2376 1.1394 -2.0628 -0.8148 3.8722
2.5590 4.8083 6.6934 -3.3991 -4.6049 -0.4199 0.4923 -0.9916 0.5749 -0.5055 -3.8426 -8.7111 -1.3821 2.2017 2.3040 0.2588 -2.9605 2.0831 2.6541 3.3285 6.4160 -3.0969 -3.7773 0.6912 -0.3282 1.3387 -3.8222 0.3967 0.4848 -4.8312 0.6136 1.6882 -2.6987 -0.4209 -0.7435 -5.1422 -0.1326 2.4176 -1.6104 1.5848 2.9324 5.4304 0.2860 -1.5557 -6.1975 0.6755 2.3489 -0.3408 -2.1220 -2.7185 0.2395 -0.4775 -2.8296 -6.4611 1.9846 1.6659 4.7108 0.0747 3.2415 0.7183 1.0093 -0.2453 3.4761 0.9191 2.0009 2.5655 -1.8544 -1.8667 1.3427 -0.2613 -0.7428 3.0806 0.1535 -3.5591 -7.5872 0.8746 1.2291 3.7831 -0.2327 2.4239 1.9368 -0.3232 -1.6724 1.7760
-2.8003 3.3115 7.1058 1.5235 -2.9104 -1.9763 -0.7335 -3.0509 3.7713 1.9535 -3.3699 -8.4256 -2.5255 2.1764 0.2980 1.5014 -2.0577 3.3007 -3.2266 2.9540 5.7045 0.7301 -3.4525 -0.9332 1.6705 1.4525 -3.2052 1.0604 0.2239 -3.8303 1.0753 1.6378 -1.8328 2.0862 -0.5182 -4.6477 0.9732 3.1024 -1.4878 -2.1022 2.2491 4.9857 1.4233 -1.7205 -5.2712 0.7179 3.2326 -0.0063 0.7867 -2.4963 0.2280 2.3881 -2.4208 -6.1927 -2.6729 1.4848 3.8148 -0.6913 3.7090 0.2597 -0.6062 0.1336 3.2973 -1.0692 2.2291 2.1059 0.3570 -3.1742 1.3980 -0.4744 -0.8824 2.3169 1.6264 -3.2723 -7.1370 -1.6447 1.0978 2.7815 -1.5230 2.6101 0.8589 0.1961 -2.2783 2.7189
1.5856 1.9184 8.2070 -3.1194 -3.6734 -1.6586 0.7484 -3.1339 2.0838 0.3370 -3.0079 -8.9807 -0.9684 3.4976 2.6400 0.7019 -1.3161 0.3765 2.1006 2.2515 6.8300 -2.8519 -2.6695 -0.6947 -0.8534 0.2839 -2.6264 -0.9214 0.1360 -4.1263 0.0195 1.4689 -2.2990 -0.5132 -1.2546 -4.5494 -0.4963 2.2086 -1.0894 1.1849 1.6699 5.7825 -0.2266 -1.2295 -6.0304 0.6390 3.0287 -0.5255 -1.7603 -3.1652 0.2212 0.1222 -2.6018 -6.5488 1.7787 1.9192 4.4178 0.1948 3.9276 0.6026 1.2180 -0.0095 2.9772 0.9378 2.2624 2.1803 -1.5084 -2.1485 1.1767 0.0118 -0.7027 2.7016 0.8045 -2.4583 -7.8596 0.8522 1.4105 3.3417 -0.0317 3.2010 1.9020 0.0142 -1.8133 1.5478
-0.8151 3.9693 7.7873 2.5021 -2.8368 -0.8040 -2.3517 -3.0394 1.5597 2.9703 -2.9500 -9.0734 -1.8515 2.7512 1.7734 -2.2472 -1.1242 -0.0236 -0.9512 2.5207 7.3885 1.9321 -2.1844 0.3186 0.3006 0.3391 -3.3366 1.3122 -0.3171 -4.2429 0.9225 0.4537 -1.9673 0.7517 -0.5726 -5.6189 0.2503 1.5176 -1.1381 -1.2444 2.4361 5.9126 1.9021 -0.9295 -6.5283 0.7802 1.4096 0.2707 0.4569 -2.4939 0.3387 1.4033 -1.4963 -7.8332 -0.8500 1.0822 5.3728 0.4346 2.6351 1.0809 -1.5600 -0.4975 3.6067 -0.3368 1.5323 3.0483 -0.1677 -1.6150 1.2597 -2.2958 -0.5647 2.3940 2.5590 -1.7270 -8.7346 -1.3141 0.9561 3.9409 -0.7219 2.3197 1.9825 -1.7703 -1.5744 1.2657

>  <OB_ATOM_TYPES> (5p2pB1)
C.3 O.3 O.3 C.2 O.2 O.2 C.3 C.3 C.3 C.3 C.3 C.3 C.3 C.3 C.3 C.3 C.3 C.3 C.3 C.3 C.3 N.am O.3 O.3 C.2 C.3 C.2 P.3

>  <ENSEMBLE_RMSD> (5p2pB1)
1.759 2.233 2.362 2.437 2.565 2.647 2.724 2.868 3.031 3.270 3.298 3.316 3.357 3.422 3.470 3.594 3.620 3.632 3.645 3.714 3.763 3.765 3.781 3.827 3.890 3.993 4.035 4.118 4.186 4.198 4.206 4.207 4.223 4.247 4.261 4.273 4.279 4.300 4.335 4.337 4.367 4.371 4.371 4.374 4.467 4.496 4.536 4.588 4.641 4.908

$$$$
