
 OpenBabel03071213D

 10  9  0  0  0  0  0  0  0  0999 V2000
   93.6110   42.1770   48.0130 O   0  0  0  0  0
   93.8610   44.4080   47.0190 O   0  0  0  0  0
   89.4500   42.9430   52.3320 O   0  0  0  0  0
   89.6220   44.0900   49.8590 O   0  0  0  0  0
   92.3800   42.6570   45.9570 O   0  0  0  0  0
   91.9140   43.3010   49.5650 C   0  0  0  0  0
   91.7620   43.6610   48.1850 O   0  0  0  0  0
   90.6350   42.9340   51.5410 N   0  0  0  0  0
   90.6150   43.4860   50.3290 C   0  0  0  0  0
   92.9770   43.1730   47.1990 P   0  0  0  0  0
  1 10  1  0  0  0
  2 10  1  0  0  0
  3  8  2  0  0  0
  4  9  2  0  0  0
  5 10  2  0  0  0
  6  7  1  0  0  0
  6  9  1  0  0  0
  7 10  1  0  0  0
  8  9  1  0  0  0
M  END
>  <MOLID> (7timA1)
7timA1

>  <SMILES_CANONICAL> (7timA1)
O=NC(=O)COP(=O)(O)O	

>  <FINGERPRINT> (7timA1)
0000000000000000000000000000000000000000000000000000000000000000000000000000000000000000000000000001000000000000000001000000000000000000000000000000000000000100000000000000000000000000000000000000000000000000010000000000000000000000000000000000000000000000000001000000000000000000000000000000000000000000000000000000000000000000000000000000000000000000010000000000000001000000000000000000000010000001100000000000001010000001000000100000000000100000000000000000000000000000000000000000000000001000000001000000100000000000000001000000000000100000000000000000000000000000000000000000000000000000000010000000000000000000000000000010000000001010000000000000000000000000000000000000010000000000000011100000000000000010000000000000000000000000000000000010000000000000000000000000000000000000000000000000000000000000000000000000000000000000000000100000000000000000000000000000000000000001000000000000000000000000000000000000000000000000000000000000010000000010000000000000000000000000000000000000000000000000000000001000000000000000

>  <MACCS166> (7timA1)
000000000000000000000000000010000000000000100001000000000000001000000011000000000000000011010110000001000100011100001010000101000111000101110100010100001111111010010000

>  <OB_MW> (7timA1)
168.978

>  <OB_logP> (7timA1)
-0.6113

>  <OB_PSA> (7timA1)
123.07

>  <OB_MR> (7timA1)
28.7381

>  <OB_ATOMIC_CHARGES> (7timA1)
-0.1145260433 -0.1145260433 -0.1530457475 -0.2670182985 -0.2223734756 0.2433717368 -0.26008481 0.0411635653 0.3139848833 0.5330542327

>  <MCT_HBD> (7timA1)
2

>  <MCT_HBA> (7timA1)
7

>  <ENSEMBLE_TOTAL> (7timA1)
50

>  <ENSEMBLE_COORDS> (7timA1)
1.9283 -1.1060 -0.9869 2.1783 1.1250 -1.9809 -2.2327 -0.3400 3.3321 -2.0607 0.8070 0.8591 0.6973 -0.6260 -3.0429 0.2313 0.0180 0.5651 0.0793 0.3780 -0.8149 -1.0477 -0.3490 2.5411 -1.0677 0.2030 1.3291 1.2943 -0.1100 -1.8009
2.4406 -0.9243 -1.0660 1.8891 1.1784 -2.5119 -2.4705 -0.5666 3.1089 -1.6168 1.3017 1.1474 0.5601 -0.9101 -2.6966 0.1894 -0.2112 0.6076 0.2242 0.4505 -0.6401 -1.4622 -0.5019 2.4218 -1.0126 0.2616 1.3712 1.2587 -0.0780 -1.7424
2.0417 -1.3913 -0.8398 2.0941 1.0256 -1.8542 -1.7166 -1.1183 2.8892 -2.1622 1.2712 1.1742 0.7674 -0.7981 -2.8897 0.0764 0.8959 0.4081 -0.1101 0.1070 -0.7548 -1.0563 -0.3488 2.2144 -1.1230 0.6304 1.2622 1.1887 -0.2738 -1.6097
2.1966 -1.3402 -1.2028 2.3991 1.2144 -1.7189 -1.2462 0.3793 3.4101 -2.5776 0.4457 0.8463 0.6338 -0.1891 -2.7617 -0.6413 -0.6338 -0.0629 0.3630 0.3278 -0.3397 -1.0246 -0.1405 2.3284 -1.4786 -0.0592 1.0358 1.3757 -0.0045 -1.5345
1.1375 -1.4890 -0.8757 2.5039 0.6689 -1.4534 -1.7100 -0.0902 3.3314 -1.8616 -0.5391 0.5058 0.7843 -0.2454 -2.9958 -0.0278 1.0417 0.4679 -0.0602 0.8514 -0.9341 -0.8677 -0.2089 2.4477 -0.9810 0.0676 1.0997 1.0825 -0.0569 -1.5937
1.8032 -1.0810 -0.3875 2.1801 1.2202 -1.5669 -1.0908 -0.3333 3.3150 -1.8725 1.2497 1.1497 1.1725 -0.7063 -2.7664 -1.0780 -0.4674 -0.3322 -0.2546 0.4221 -1.0681 -0.7956 -0.4327 2.1307 -1.2821 0.1876 1.0001 1.2179 -0.0590 -1.4744
2.2019 -1.2785 -1.6339 1.9565 1.2914 -2.0455 -1.5041 -0.3317 3.2011 -1.9897 0.4827 0.0763 0.0079 -0.2404 -2.1835 0.0227 -0.6751 0.7277 0.9255 0.2181 0.0996 -1.6230 0.4397 2.2508 -1.2340 0.1064 0.9625 1.2362 -0.0125 -1.4550
2.3241 -1.1046 -1.6970 1.3615 1.1702 -2.5506 -2.6189 -0.5316 2.5571 -1.5176 0.7895 0.3963 -0.1229 -0.6728 -1.8058 0.5880 -0.2373 1.0108 1.1536 0.5467 -0.0228 -1.4730 -0.1159 2.4090 -0.8380 0.1916 1.2195 1.1432 -0.0359 -1.5166
2.7303 -0.5452 -1.2321 1.4867 1.1851 -2.7418 -2.6729 -0.3699 3.0084 -0.7676 1.3098 1.8085 0.6170 -1.1178 -2.4183 -0.1188 -0.5347 0.3885 0.4204 0.4472 -0.4769 -2.0244 -0.5017 1.9790 -0.9629 0.1684 1.4125 1.2923 -0.0413 -1.7278
2.3579 -0.7930 -2.2532 1.2058 1.4196 -1.4781 -2.3349 0.1705 2.8318 -1.5051 0.8347 0.2759 -0.1103 -0.5709 -2.1721 0.6477 0.1129 1.0670 1.0485 -0.7483 0.0180 -1.5561 -0.4412 2.1012 -0.8502 0.1945 1.0888 1.0967 -0.1786 -1.4795
2.2564 -0.5638 -0.6301 1.6962 1.1934 -2.4768 -2.2784 -1.0139 2.4905 -0.0143 1.1552 1.8331 0.7961 -1.1194 -2.5704 -0.6806 -0.4651 0.1546 -0.1823 0.4020 -0.8464 -1.9041 0.1391 2.2712 -0.8166 0.3282 1.4227 1.1275 -0.0558 -1.6485
2.6610 -0.8919 -1.1727 1.3058 1.3350 -1.0183 -1.1885 -0.1502 3.3007 -1.3201 1.5896 0.9107 0.8398 -0.3650 -2.7776 -1.1562 -0.4233 -0.3814 0.1529 -0.9594 -0.4540 -1.2744 -0.2813 2.0933 -1.2419 0.3680 0.8898 1.2216 -0.2215 -1.3906
1.1258 -1.4692 -0.3745 2.4166 0.6083 -1.3095 -0.1746 -1.1016 2.3326 -2.4940 0.6475 0.7723 0.8301 -0.6944 -2.7152 -0.1894 1.2334 0.3749 -0.1772 0.7361 -0.9520 -1.0659 -0.2771 2.1658 -1.3135 0.5319 1.0737 1.0422 -0.2149 -1.3679
1.7189 -1.1735 -0.2886 2.1189 0.3404 -2.3824 -0.8566 -1.0769 2.6438 -2.1698 0.8074 0.2998 -0.0999 -0.6623 -1.9086 0.1581 1.0646 0.8968 0.6079 1.2148 -0.4356 -1.3528 -0.8170 1.5501 -1.1813 0.3866 0.8848 1.0565 -0.0842 -1.2602
1.6286 -1.3678 -0.4157 2.4695 0.9016 -1.3907 -0.0983 -0.7858 2.4046 -2.6396 0.9102 1.2495 0.9428 -0.5775 -2.6741 -1.1381 -0.1608 -0.3062 -0.0453 0.6352 -0.7290 -0.7820 0.2057 2.1642 -1.5710 0.3551 1.0327 1.2334 -0.1160 -1.3352
1.7939 -1.4267 -1.6934 2.2794 1.1491 -1.5319 -2.3869 1.1212 2.5975 -1.6038 -1.3515 1.3811 0.5020 0.2406 -3.0079 0.4127 -0.2072 0.7405 0.0436 0.1820 -0.5715 -1.3003 0.6225 2.3368 -0.8820 -0.3675 1.4759 1.1413 0.0375 -1.7270
2.0537 -1.4668 -2.1707 2.3681 0.9207 -1.1581 -2.1929 0.6631 3.3263 -1.5945 -1.1687 1.2731 0.6282 0.4400 -2.8750 -0.2976 0.5624 0.1964 0.2174 -0.4890 -0.5971 -1.3639 0.7086 2.4277 -1.1139 -0.0433 1.3017 1.2953 -0.1271 -1.7243
2.3561 -0.5255 -0.9730 0.7956 1.4594 -1.6639 -2.4984 -0.4867 2.1985 -0.1000 1.4545 1.2053 0.8292 -0.6750 -2.9276 -0.0176 -0.9053 0.6932 -0.2575 -0.7344 -0.6923 -1.5100 0.2269 2.3616 -0.5256 0.3219 1.3878 0.9282 -0.1358 -1.5896
1.3607 -1.5978 -0.4011 2.0657 0.8601 -0.9570 -0.7133 -1.1777 2.3623 -2.2600 1.0368 1.5735 1.2811 -0.7095 -2.7144 -0.7309 1.2073 -0.2755 -0.4644 0.1266 -1.1465 -0.3974 -0.1131 1.8388 -1.2030 0.6981 1.0563 1.0614 -0.3309 -1.3363
1.8243 -1.5833 -1.9135 2.5659 0.8353 -1.2723 -0.6742 0.4326 3.1065 -2.3383 -0.7418 0.5613 0.4509 0.3983 -2.5129 -0.4595 0.7293 0.2097 0.4975 -0.2696 -0.0966 -1.6527 0.2879 2.3752 -1.5187 0.0442 1.0154 1.3049 -0.1327 -1.4728
2.7357 -0.4795 -1.4059 0.9586 1.4340 -1.3999 -2.3596 0.3119 2.9631 -0.1615 1.1184 1.4174 0.7333 -0.5585 -2.8727 -0.9628 -0.5213 -0.1448 0.3556 -0.9502 -0.4435 -1.6089 -0.3513 2.2522 -0.8660 0.1427 1.1937 1.1755 -0.1463 -1.5596
2.0795 -0.8815 -2.5397 1.7659 1.3431 -1.2026 -2.4133 0.7725 2.7725 -1.7133 -0.3177 0.3298 -0.1612 0.1228 -2.1909 0.6186 -0.2619 0.9934 0.8994 -0.9448 -0.2089 -1.3249 0.3498 2.4032 -0.8647 -0.1005 1.1846 1.1140 -0.0818 -1.5414
1.5607 -1.3981 -1.3655 2.1791 1.0039 -2.1883 -1.6015 0.5785 2.9732 -1.5495 -1.1184 0.2114 -0.1718 0.2151 -2.1364 0.4849 -0.1719 1.0913 0.8838 0.7151 0.0619 -1.8650 0.3889 1.7862 -1.0008 -0.3434 0.9835 1.0800 0.1303 -1.4172
1.5602 -1.3095 -0.8716 2.4351 1.0338 -1.6213 -2.0684 0.4479 3.0738 -0.3919 -1.3049 1.5570 0.6633 -0.1600 -2.8895 -1.1200 0.0445 -0.2925 0.0091 0.8076 -0.6857 -1.3180 0.6312 2.1214 -0.9164 -0.2735 1.1574 1.1470 0.0829 -1.5489
2.3419 -1.0479 -1.0033 1.2705 0.5679 -2.7521 -1.6088 -1.5873 1.7358 -1.6692 1.4994 0.7528 -0.1151 -0.9978 -1.4170 0.5174 0.5235 1.1014 0.8578 0.9594 -0.2017 -1.6749 -0.3731 1.8983 -0.9753 0.6087 1.2236 1.0556 -0.1527 -1.3378
1.7266 -0.5212 0.0278 2.0810 0.8612 -2.1565 -1.0985 -1.5144 2.2834 -0.5627 1.5785 1.4803 0.8102 -1.2757 -2.1645 -1.2834 0.0842 -0.2921 -0.3102 0.6945 -1.1182 -1.3804 -0.3242 2.1800 -1.0454 0.5114 1.1287 1.0628 -0.0943 -1.3690
1.4957 -1.3527 -1.0476 2.2424 1.0489 -1.7775 -2.0920 0.9697 2.6208 -0.4766 -1.5722 1.3462 0.3765 -0.1433 -2.9063 0.1973 0.6665 0.7673 -0.0832 0.7090 -0.6212 -1.9318 -0.0125 1.9001 -0.7207 -0.3730 1.3325 0.9925 0.0598 -1.6143
2.7551 -0.8406 -1.4010 1.3527 0.9855 -2.6378 -2.6921 -0.7225 2.5009 -0.4625 0.9172 2.3754 0.3795 -1.2227 -2.0198 -0.5338 0.7926 -0.0242 0.8145 0.3711 -0.1447 -1.9556 -0.5047 1.5458 -0.9517 0.4248 1.3667 1.2941 -0.2007 -1.5613
1.9347 -1.7464 -1.1485 2.1088 0.8117 -0.6632 0.0964 -0.4699 2.3115 -2.7979 0.6614 1.1544 1.0477 -0.0605 -2.7440 -0.8083 0.8424 -0.2017 -0.2327 -0.3790 -0.6348 -0.9704 0.1285 2.2144 -1.5849 0.5424 1.0446 1.2066 -0.3305 -1.3327
1.5729 -1.4460 -0.4752 1.7458 1.1573 -0.6536 0.1036 -0.5402 2.5608 -2.2149 1.2668 0.8909 1.4781 -0.2752 -2.6630 -1.2146 -0.6579 -0.1575 -0.5235 -0.0204 -1.2163 -0.6245 0.3107 2.0679 -1.3947 0.3593 0.9266 1.0717 -0.1544 -1.2806
1.9876 -1.4505 -1.4899 1.8500 0.8987 -0.3400 -0.0727 0.7018 2.8436 -2.6754 0.1017 0.7563 1.1919 0.5610 -2.7111 -0.5810 -0.9780 0.2591 -0.3526 -0.3667 -0.9993 -1.0254 0.6652 2.0821 -1.4895 -0.0574 1.0124 1.1671 -0.0759 -1.4133
2.5101 -0.3759 -1.2810 0.5490 1.2526 -1.8881 -2.3737 -0.8582 1.2920 -0.4665 1.7730 1.7845 0.5730 -1.1091 -2.6504 0.5338 -0.2828 1.0317 0.1213 -0.7446 -0.2420 -1.8056 0.0354 1.9158 -0.5734 0.5722 1.5716 0.9320 -0.2626 -1.5342
2.1555 -1.1834 -2.0822 1.9707 0.9534 -0.5806 -1.5053 1.3516 2.8352 -2.2350 -0.8722 1.3325 0.6954 0.7277 -2.6995 0.0453 -0.9287 0.5832 -0.0799 -0.6840 -0.8076 -1.0636 0.9708 1.7549 -1.1550 -0.3058 1.2275 1.1719 -0.0294 -1.5634
2.5379 -0.2333 -2.1282 0.4474 1.2784 -1.7464 -2.2627 -0.6230 2.5541 -0.5658 1.5552 0.9774 0.2500 -1.1899 -1.9817 0.1442 -0.7710 0.8953 1.2617 -0.3398 0.1485 -2.1018 0.1089 1.5765 -0.8071 0.3677 1.1392 1.0964 -0.1532 -1.4345
1.0144 -1.5192 -0.5750 2.6363 0.3092 -1.4853 -0.0092 -0.0934 2.5755 -2.1864 -0.7845 0.2737 0.3419 0.0346 -2.4041 -0.8586 1.2037 0.0150 0.5394 1.0172 -0.1075 -1.1454 -0.1748 2.1122 -1.4340 0.0425 0.7712 1.1017 -0.0353 -1.1758
2.3449 -0.4209 -0.9095 0.6428 1.5173 -1.3692 -2.3739 0.5797 2.6126 0.2482 0.7730 1.7414 0.9751 -0.3409 -2.9848 -0.1134 -1.2380 0.4814 -0.2425 -0.8957 -0.8861 -1.8758 0.1263 1.5875 -0.5375 -0.0540 1.2965 0.9320 -0.0468 -1.5697
2.2004 -1.1991 -1.7269 0.9859 1.1068 -1.8928 -1.2803 -1.4076 1.7024 -1.6934 1.5159 0.3463 -0.2560 -1.0086 -1.4362 0.5210 0.9217 1.0909 1.1626 -0.1459 0.4212 -1.6544 -0.2380 1.6572 -0.9716 0.7743 0.9994 0.9858 -0.3195 -1.1615
2.4147 -1.2320 -0.6861 1.7264 0.6481 -2.3640 -0.6489 -1.4205 1.5026 -2.0106 1.4785 1.8645 0.1260 -1.1236 -1.6486 -0.5724 1.2011 -0.0514 0.7164 0.6207 0.0439 -1.5695 -0.6128 1.3994 -1.3932 0.7340 1.1146 1.2112 -0.2936 -1.1749
2.5224 -0.8788 -1.4156 1.3403 1.1997 -0.3741 -0.0967 -0.0580 2.5887 -1.8392 1.3366 0.2315 0.4274 0.0459 -2.3876 -1.1634 -0.9533 -0.0832 0.2301 -1.1703 -0.2066 -1.1233 0.3719 2.0676 -1.3991 0.2998 0.7101 1.1015 -0.1936 -1.1308
2.3494 -0.9611 -1.0804 1.3628 1.2057 -2.1765 -2.5105 -0.5740 0.9252 -0.1697 0.3316 2.9286 0.4486 -1.0498 -2.6773 0.1789 0.8141 0.5930 -0.0469 -0.1488 -0.4189 -1.9989 0.2122 1.7211 -0.6279 0.4228 1.7966 1.0142 -0.2529 -1.6115
2.0803 -0.3537 -0.0507 1.8648 0.2633 -2.5788 -1.6836 -1.6392 1.5097 -0.5955 1.4850 1.9774 0.3175 -1.3509 -1.4971 -1.1811 0.7510 -0.2446 0.0447 1.0660 -0.8809 -0.9906 -0.6718 1.8020 -0.9048 0.5765 1.2190 1.0482 -0.1263 -1.2560
2.6644 -0.8879 -1.2280 1.0863 0.6740 -2.6063 -2.0280 -1.3718 1.0037 -1.0447 1.5007 2.3951 0.2470 -1.3917 -1.5007 -0.4654 1.0800 0.0989 0.8315 0.5163 -0.0000 -1.4811 -0.5414 1.7183 -0.9883 0.7199 1.4546 1.1783 -0.2980 -1.3356
2.3349 -1.0834 -2.0876 1.9074 1.2259 -0.9423 -2.1522 1.5983 2.2759 -0.6105 -1.3991 1.9641 0.4275 0.3625 -2.7501 -0.8508 -0.0523 -0.0351 0.2596 -0.7751 -0.5338 -1.5485 0.5384 2.2867 -0.9731 -0.3618 1.4268 1.2057 -0.0535 -1.6047
0.6730 -1.7108 -1.2813 1.9088 0.2408 -0.0521 0.1775 0.3037 2.7041 -1.9546 -0.8889 0.5475 1.6729 0.1928 -2.5245 -0.8336 1.1869 0.0028 -0.4069 0.6679 -1.2412 -0.9388 0.0789 2.2442 -1.2759 0.0660 0.9012 0.9777 -0.1373 -1.3008
1.7562 -1.5475 -1.9717 1.8563 0.1524 0.0073 -0.7369 0.6316 3.2353 -1.7738 -1.0635 1.1421 1.4444 0.8902 -2.3350 -1.1043 0.6353 -0.4301 -0.4246 -0.3268 -1.2170 -0.8925 0.7637 2.0324 -1.2846 0.0391 0.9357 1.1598 -0.1743 -1.3989
1.5551 -1.2317 -1.8368 1.9797 1.3401 -1.7413 -1.1420 1.6437 1.4313 -1.9526 -1.3814 0.7726 -0.3183 0.4057 -1.7163 0.4012 -0.9392 1.0406 1.0481 0.1180 0.3607 -1.5313 0.5256 1.7635 -1.0638 -0.6373 1.1654 1.0239 0.1565 -1.2397
2.0869 -1.0806 -2.0554 1.8654 1.0159 -0.5042 -0.8278 1.8940 1.4391 -2.0584 -1.2449 1.7577 0.4318 0.7127 -2.5102 0.1207 -0.8937 0.8079 -0.0614 -0.7837 -0.5928 -1.4457 0.8628 1.6699 -1.1757 -0.4669 1.4213 1.0642 -0.0156 -1.4333
2.2868 -1.0402 -1.8513 0.9677 1.1688 -2.3070 -2.7561 0.2859 0.6320 -0.1194 -0.4890 2.6042 -0.1808 -0.9263 -1.6067 0.1480 1.0085 0.7321 1.1769 0.2350 0.1393 -1.9438 -0.1698 1.4265 -0.6053 0.0827 1.6379 1.0261 -0.1557 -1.4069
2.3912 -0.8793 -1.6269 1.4136 1.5217 -1.9507 -1.8274 1.3459 0.4696 -0.9297 -0.6944 2.8811 -0.0062 -0.5042 -2.1832 0.0033 -0.9919 0.6784 0.7338 0.0938 0.1327 -1.9380 0.4793 1.3330 -0.9380 -0.4122 1.6908 1.0973 0.0415 -1.4249
2.0328 -0.1195 -2.3354 -0.4168 0.5505 -1.7399 -1.9630 -1.1150 0.5961 -0.8403 1.8048 1.4845 0.5439 -1.6460 -1.0660 0.7489 -0.0120 1.3544 1.3853 0.3782 0.1517 -1.7483 -0.1966 1.3827 -0.6190 0.6046 1.4057 0.8765 -0.2488 -1.2337

>  <OB_ATOM_TYPES> (7timA1)
O.3 O.3 O.2 O.2 O.2 C.3 O.3 N.am C.2 P.3

>  <ENSEMBLE_RMSD> (7timA1)
0.000 0.437 0.539 0.697 0.739 0.770 0.819 0.882 0.887 0.990 1.020 1.021 1.031 1.034 1.055 1.056 1.077 1.086 1.104 1.110 1.118 1.123 1.133 1.160 1.170 1.171 1.177 1.182 1.186 1.219 1.270 1.288 1.294 1.296 1.299 1.303 1.327 1.344 1.364 1.374 1.405 1.433 1.456 1.493 1.497 1.574 1.629 1.662 1.663 1.795

$$$$
